
 *******************************************************************************

         NASA-GLENN CHEMICAL EQUILIBRIUM PROGRAM CEA2, MAY 21, 2004
                   BY  BONNIE MCBRIDE AND SANFORD GORDON
      REFS: NASA RP-1311, PART I, 1994 AND NASA RP-1311, PART II, 1996

 *******************************************************************************



 problem rocket eq fr
     p(psi) = 20, 30, 40, 50
     o/f = 3.2, 3.4, 3.6, 3.8, 4, 4.2
     sup = 1, 1.2, 1.4, 1.6, 1.8, 2
 reac
     fuel = H2O(L) t(K) = 298.000
     ox = H2O2(L) t(K) = 298.000
 outp trans
 end

 OPTIONS: TP=F  HP=F  SP=F  TV=F  UV=F  SV=F  DETN=F  SHOCK=F  REFL=F  INCD=F
 RKT=T  FROZ=T  EQL=T  IONS=F  SIUNIT=T  DEBUGF=F  SHKDBG=F  DETDBG=F  TRNSPT=T

 TRACE= 0.00E+00  S/R= 0.000000E+00  H/R= 0.000000E+00  U/R= 0.000000E+00

 Pc,BAR =     1.378946     2.068419     2.757892     3.447365

 Pc/P =

 SUBSONIC AREA RATIOS =

 SUPERSONIC AREA RATIOS =     1.0000     1.2000     1.4000     1.6000     1.8000
     2.0000

 NFZ=  1  Mdot/Ac= 0.000000E+00  Ac/At= 0.000000E+00

 WARNING!!  AMOUNT MISSING FOR REACTANT  1.
 PROGRAM SETS WEIGHT PERCENT = 100. (REACT)

 WARNING!!  AMOUNT MISSING FOR REACTANT  2.
 PROGRAM SETS WEIGHT PERCENT = 100. (REACT)

    REACTANT          WT.FRAC   (ENERGY/R),K   TEMP,K  DENSITY
        EXPLODED FORMULA
 F: H2O(L)           1.000000  -0.343786E+05   298.00  0.0000
          H  2.00000  O  1.00000
 O: H2O2(L)          1.000000  -0.225862E+05   298.00  0.0000
          H  2.00000  O  2.00000

  SPECIES BEING CONSIDERED IN THIS SYSTEM
 (CONDENSED PHASE MAY HAVE NAME LISTED SEVERAL TIMES)
  LAST thermo.inp UPDATE:    9/09/04

  g 6/97  *H               g 4/02  HO2              tpis78  *H2            
  g 8/89  H2O              g 6/99  H2O2             g 5/97  *O             
  g 4/02  *OH              tpis89  *O2              g 8/01  O3             
  g11/99  H2O(cr)          g 8/01  H2O(L)           g 8/01  H2O(L)         

 SPECIES WITH TRANSPORT PROPERTIES

        PURE SPECIES

  H                 H2                H2O               O               
  OH                O2              

     BINARY INTERACTIONS

     H               H2              
     H               O               
     H2              H2O             
     H2              O2              
     H2O             O2              
     O               O2              


 O/F =   3.200000

                       EFFECTIVE FUEL     EFFECTIVE OXIDANT        MIXTURE
 ENTHALPY                  h(2)/R              h(1)/R               h0/R
 (KG-MOL)(K)/KG       -0.19083035E+04     -0.66401406E+03     -0.96027344E+03

 KG-FORM.WT./KG             bi(2)               bi(1)               b0i
  *H                   0.11101687E+00      0.58798142E-01      0.71231173E-01
  *O                   0.55508435E-01      0.58798142E-01      0.58014879E-01

 POINT ITN      T            H           O 
   1   11     690.083     -26.274     -13.385
 Pinf/Pt = 1.830593
   2    3     599.663     -29.514     -13.548
 Pinf/Pt = 1.837987
   2    2     599.094     -29.538     -13.549
 Pinf/Pt = 1.838032
   2    1     599.091     -29.538     -13.549
   3    1     599.091     -29.538     -13.549
   4    3     516.201     -33.511     -13.735
   4    2     508.729     -33.933     -13.754
   4    2     508.890     -33.924     -13.753
   5    3     477.672     -35.828     -13.838
   5    2     469.521     -36.366     -13.862
   5    2     469.630     -36.359     -13.861
   6    3     448.049     -37.879     -13.927
   6    2     440.992     -38.409     -13.950
   6    2     441.050     -38.404     -13.950
   7    2     423.824     -39.771     -14.008
   7    2     418.431     -40.221     -14.027
   7    1     418.458     -40.219     -14.027
   8    3     399.083     -41.939     -14.099
   8    2     399.823     -41.870     -14.096





              THEORETICAL ROCKET PERFORMANCE ASSUMING EQUILIBRIUM

           COMPOSITION DURING EXPANSION FROM INFINITE AREA COMBUSTOR

 Pin =    20.0 PSIA
 CASE =                

             REACTANT                    WT FRACTION      ENERGY      TEMP
                                          (SEE NOTE)     KJ/KG-MOL      K  
 FUEL        H2O(L)                       1.0000000   -285841.390    298.000
 OXIDANT     H2O2(L)                      1.0000000   -187793.400    298.000

 O/F=    3.20000  %FUEL= 23.809524  R,EQ.RATIO= 0.613904  PHI,EQ.RATIO= 0.000000

                 CHAMBER   THROAT     EXIT     EXIT     EXIT     EXIT     EXIT     EXIT
 Pinf/P            1.0000   1.8380   1.8380   3.6387   5.0589   6.5290   8.0717   9.6900
 P, BAR            1.3789  0.75023  0.75023  0.37896  0.27258  0.21120  0.17084  0.14231
 T, K              690.08   599.09   599.09   508.89   469.63   441.05   418.46   399.82
 RHO, KG/CU M    5.1336-1 3.2172-1 3.2172-1 1.9131-1 1.4911-1 1.2302-1 1.0488-1 9.1439-2
 H, KJ/KG        -7984.20 -8136.72 -8136.72 -8283.72 -8346.45 -8391.65 -8427.12 -8456.22
 U, KJ/KG        -8252.82 -8369.92 -8369.92 -8481.81 -8529.25 -8563.33 -8590.01 -8611.85
 G, KJ/KG        -15193.9 -14395.8 -14395.8 -13600.4 -13252.9 -12999.5 -12799.0 -12633.4
 S, KJ/(KG)(K)    10.4475  10.4475  10.4475  10.4475  10.4475  10.4475  10.4475  10.4475

 M, (1/n)          21.361   21.361   21.361   21.361   21.361   21.361   21.361   21.361
 (dLV/dLP)t      -1.00000 -1.00000 -1.00000 -1.00000 -1.00000 -1.00000 -1.00000 -1.00000
 (dLV/dLT)p        1.0000   1.0000   1.0000   1.0000   1.0000   1.0000   1.0000   1.0000
 Cp, KJ/(KG)(K)    1.6999   1.6526   1.6526   1.6071   1.5883   1.5752   1.5653   1.5576
 GAMMAs            1.2970   1.3081   1.3081   1.3196   1.3246   1.3282   1.3310   1.3332
 SON VEL,M/SEC      590.2    552.3    552.3    511.3    492.1    477.5    465.6    455.5
 MACH NUMBER        0.000    1.000    1.000    1.514    1.730    1.890    2.021    2.133

 TRANSPORT PROPERTIES (GASES ONLY)
   CONDUCTIVITY IN UNITS OF MILLIWATTS/(CM)(K)

 VISC,MILLIPOISE  0.30542  0.26829  0.26829  0.23038  0.21365  0.20143  0.19177  0.18383

  WITH EQUILIBRIUM REACTIONS

 Cp, KJ/(KG)(K)    1.6999   1.6526   1.6526   1.6071   1.5883   1.5752   1.5653   1.5576
 CONDUCTIVITY      0.5773   0.4849   0.4849   0.3989   0.3638   0.3393   0.3207   0.3059
 PRANDTL NUMBER    0.8994   0.9144   0.9144   0.9281   0.9328   0.9352   0.9361   0.9361

  WITH FROZEN REACTIONS

 Cp, KJ/(KG)(K)    1.6999   1.6526   1.6526   1.6071   1.5883   1.5752   1.5653   1.5576
 CONDUCTIVITY      0.5773   0.4849   0.4849   0.3989   0.3638   0.3393   0.3207   0.3059
 PRANDTL NUMBER    0.8994   0.9144   0.9144   0.9281   0.9328   0.9352   0.9361   0.9361

 PERFORMANCE PARAMETERS

 Ae/At                      1.0000   1.0000   1.2000   1.4000   1.6000   1.8000   2.0000
 CSTAR, M/SEC                776.1    776.1    776.1    776.1    776.1    776.1    776.1
 CF                         0.7117   0.7117   0.9973   1.0968   1.1632   1.2128   1.2520
 Ivac, M/SEC                 974.5    974.5   1029.9   1065.9   1092.9   1114.3   1131.8
 Isp, M/SEC                  552.3    552.3    774.0    851.2    902.7    941.2    971.6


 MOLE FRACTIONS

 H2O              0.76077  0.76077  0.76077  0.76077  0.76077  0.76077  0.76077  0.76077
 *O2              0.23923  0.23923  0.23923  0.23923  0.23923  0.23923  0.23923  0.23923

  * THERMODYNAMIC PROPERTIES FITTED TO 20000.K

    PRODUCTS WHICH WERE CONSIDERED BUT WHOSE MOLE FRACTIONS
    WERE LESS THAN 5.000000E-06 FOR ALL ASSIGNED CONDITIONS

 *H              HO2             *H2             H2O2            *O             
 *OH             O3              H2O(cr)         H2O(L)         

 NOTE. WEIGHT FRACTION OF FUEL IN TOTAL FUELS AND OF OXIDANT IN TOTAL OXIDANTS





           THEORETICAL ROCKET PERFORMANCE ASSUMING FROZEN COMPOSITION

 Pin =    20.0 PSIA
 CASE =                

             REACTANT                    WT FRACTION      ENERGY      TEMP
                                          (SEE NOTE)     KJ/KG-MOL      K  
 FUEL        H2O(L)                       1.0000000   -285841.390    298.000
 OXIDANT     H2O2(L)                      1.0000000   -187793.400    298.000

 O/F=    3.20000  %FUEL= 23.809524  R,EQ.RATIO= 0.613904  PHI,EQ.RATIO= 0.000000

                 CHAMBER   THROAT     EXIT     EXIT     EXIT     EXIT     EXIT     EXIT
 Pinf/P            1.0000   1.8380   1.8380   3.6387   5.0589   6.5290   8.0717   9.6900
 P, BAR            1.3789  0.75023  0.75023  0.37896  0.27258  0.21120  0.17084  0.14231
 T, K              690.08   599.09   599.09   508.89   469.63   441.05   418.46   399.82
 RHO, KG/CU M    5.1336-1 3.2172-1 3.2172-1 1.9131-1 1.4911-1 1.2302-1 1.0488-1 9.1439-2
 H, KJ/KG        -7984.20 -8136.72 -8136.72 -8283.72 -8346.45 -8391.65 -8427.12 -8456.22
 U, KJ/KG        -8252.82 -8369.92 -8369.92 -8481.81 -8529.25 -8563.33 -8590.01 -8611.85
 G, KJ/KG        -15193.9 -14395.8 -14395.8 -13600.4 -13252.9 -12999.5 -12799.0 -12633.4
 S, KJ/(KG)(K)    10.4475  10.4475  10.4475  10.4475  10.4475  10.4475  10.4475  10.4475

 M, (1/n)          21.361   21.361   21.361   21.361   21.361   21.361   21.361   21.361
 Cp, KJ/(KG)(K)    1.6999   1.6526   1.6526   1.6071   1.5883   1.5752   1.5653   1.5576
 GAMMAs            1.2970   1.3081   1.3081   1.3196   1.3246   1.3282   1.3310   1.3332
 SON VEL,M/SEC      590.2    552.3    552.3    511.3    492.1    477.5    465.6    455.5
 MACH NUMBER        0.000    1.000    1.000    1.514    1.730    1.890    2.021    2.133

 TRANSPORT PROPERTIES (GASES ONLY)
   CONDUCTIVITY IN UNITS OF MILLIWATTS/(CM)(K)

 VISC,MILLIPOISE  0.30542  0.26829  0.26829  0.23038  0.21365  0.20143  0.19177  0.18383

  WITH FROZEN REACTIONS

 Cp, KJ/(KG)(K)    1.6999   1.6526   1.6526   1.6071   1.5883   1.5752   1.5653   1.5576
 CONDUCTIVITY      0.5773   0.4849   0.4849   0.3989   0.3638   0.3393   0.3207   0.3059
 PRANDTL NUMBER    0.8994   0.9144   0.9144   0.9281   0.9328   0.9352   0.9361   0.9361

 PERFORMANCE PARAMETERS

 Ae/At                      1.0000   1.0000   1.2000   1.4000   1.6000   1.8000   2.0000
 CSTAR, M/SEC                776.1    776.1    776.1    776.1    776.1    776.1    776.1
 CF                         0.7117   0.7117   0.9973   1.0968   1.1632   1.2128   1.2520
 Ivac, M/SEC                 974.5    974.5   1029.9   1065.9   1092.9   1114.3   1131.8
 Isp, M/SEC                  552.3    552.3    774.0    851.2    902.7    941.2    971.6

 MOLE FRACTIONS

 H2O             0.76077   *O2             0.23923

  * THERMODYNAMIC PROPERTIES FITTED TO 20000.K

    PRODUCTS WHICH WERE CONSIDERED BUT WHOSE MOLE FRACTIONS
    WERE LESS THAN 5.000000E-06 FOR ALL ASSIGNED CONDITIONS

 *H              HO2             *H2             H2O2            *O             
 *OH             O3              H2O(cr)         H2O(L)         

 NOTE. WEIGHT FRACTION OF FUEL IN TOTAL FUELS AND OF OXIDANT IN TOTAL OXIDANTS






 POINT ITN      T            H           O 
   1    1     690.083     -26.173     -13.182
 Pinf/Pt = 1.830593
   2    3     599.663     -29.413     -13.345
 Pinf/Pt = 1.837987
   2    2     599.094     -29.436     -13.346
 Pinf/Pt = 1.838032
   2    1     599.091     -29.436     -13.346
   3    1     599.091     -29.436     -13.346
   4    3     516.201     -33.410     -13.532
   4    2     508.729     -33.832     -13.551
   4    2     508.890     -33.822     -13.551
   5    3     477.672     -35.726     -13.635
   5    2     469.521     -36.265     -13.659
   5    2     469.630     -36.258     -13.659
   6    3     448.049     -37.778     -13.725
   6    2     440.992     -38.307     -13.747
   6    2     441.050     -38.303     -13.747
   7    2     423.824     -39.669     -13.806
   7    2     418.431     -40.120     -13.825
   7    1     418.458     -40.118     -13.824
   8    3     399.083     -41.838     -13.897
   8    2     399.823     -41.769     -13.894





              THEORETICAL ROCKET PERFORMANCE ASSUMING EQUILIBRIUM

           COMPOSITION DURING EXPANSION FROM INFINITE AREA COMBUSTOR

 Pin =    30.0 PSIA
 CASE =                

             REACTANT                    WT FRACTION      ENERGY      TEMP
                                          (SEE NOTE)     KJ/KG-MOL      K  
 FUEL        H2O(L)                       1.0000000   -285841.390    298.000
 OXIDANT     H2O2(L)                      1.0000000   -187793.400    298.000

 O/F=    3.20000  %FUEL= 23.809524  R,EQ.RATIO= 0.613904  PHI,EQ.RATIO= 0.000000

                 CHAMBER   THROAT     EXIT     EXIT     EXIT     EXIT     EXIT     EXIT
 Pinf/P            1.0000   1.8380   1.8380   3.6387   5.0589   6.5290   8.0717   9.6900
 P, BAR            2.0684   1.1253   1.1253  0.56844  0.40887  0.31680  0.25626  0.21346
 T, K              690.08   599.09   599.09   508.89   469.63   441.05   418.46   399.82
 RHO, KG/CU M    7.7004-1 4.8258-1 4.8258-1 2.8697-1 2.2367-1 1.8453-1 1.5732-1 1.3716-1
 H, KJ/KG        -7984.20 -8136.72 -8136.72 -8283.72 -8346.45 -8391.65 -8427.12 -8456.22
 U, KJ/KG        -8252.82 -8369.92 -8369.92 -8481.81 -8529.25 -8563.33 -8590.01 -8611.85
 G, KJ/KG        -15085.0 -14301.2 -14301.2 -13520.1 -13178.8 -12929.9 -12732.9 -12570.3
 S, KJ/(KG)(K)    10.2897  10.2897  10.2897  10.2897  10.2897  10.2897  10.2897  10.2897

 M, (1/n)          21.361   21.361   21.361   21.361   21.361   21.361   21.361   21.361
 (dLV/dLP)t      -1.00000 -1.00000 -1.00000 -1.00000 -1.00000 -1.00000 -1.00000 -1.00000
 (dLV/dLT)p        1.0000   1.0000   1.0000   1.0000   1.0000   1.0000   1.0000   1.0000
 Cp, KJ/(KG)(K)    1.6999   1.6526   1.6526   1.6071   1.5883   1.5752   1.5653   1.5576
 GAMMAs            1.2970   1.3081   1.3081   1.3196   1.3246   1.3282   1.3310   1.3332
 SON VEL,M/SEC      590.2    552.3    552.3    511.3    492.1    477.5    465.6    455.5
 MACH NUMBER        0.000    1.000    1.000    1.514    1.730    1.890    2.021    2.133

 TRANSPORT PROPERTIES (GASES ONLY)
   CONDUCTIVITY IN UNITS OF MILLIWATTS/(CM)(K)

 VISC,MILLIPOISE  0.30542  0.26829  0.26829  0.23038  0.21365  0.20143  0.19177  0.18383

  WITH EQUILIBRIUM REACTIONS

 Cp, KJ/(KG)(K)    1.6999   1.6526   1.6526   1.6071   1.5883   1.5752   1.5653   1.5576
 CONDUCTIVITY      0.5773   0.4849   0.4849   0.3989   0.3638   0.3393   0.3207   0.3059
 PRANDTL NUMBER    0.8994   0.9144   0.9144   0.9281   0.9328   0.9352   0.9361   0.9361

  WITH FROZEN REACTIONS

 Cp, KJ/(KG)(K)    1.6999   1.6526   1.6526   1.6071   1.5883   1.5752   1.5653   1.5576
 CONDUCTIVITY      0.5773   0.4849   0.4849   0.3989   0.3638   0.3393   0.3207   0.3059
 PRANDTL NUMBER    0.8994   0.9144   0.9144   0.9281   0.9328   0.9352   0.9361   0.9361

 PERFORMANCE PARAMETERS

 Ae/At                      1.0000   1.0000   1.2000   1.4000   1.6000   1.8000   2.0000
 CSTAR, M/SEC                776.1    776.1    776.1    776.1    776.1    776.1    776.1
 CF                         0.7117   0.7117   0.9973   1.0968   1.1632   1.2128   1.2520
 Ivac, M/SEC                 974.5    974.5   1029.9   1065.9   1092.9   1114.3   1131.8
 Isp, M/SEC                  552.3    552.3    774.0    851.2    902.7    941.2    971.6


 MOLE FRACTIONS

 H2O              0.76077  0.76077  0.76077  0.76077  0.76077  0.76077  0.76077  0.76077
 *O2              0.23923  0.23923  0.23923  0.23923  0.23923  0.23923  0.23923  0.23923

  * THERMODYNAMIC PROPERTIES FITTED TO 20000.K

    PRODUCTS WHICH WERE CONSIDERED BUT WHOSE MOLE FRACTIONS
    WERE LESS THAN 5.000000E-06 FOR ALL ASSIGNED CONDITIONS

 *H              HO2             *H2             H2O2            *O             
 *OH             O3              H2O(cr)         H2O(L)         

 NOTE. WEIGHT FRACTION OF FUEL IN TOTAL FUELS AND OF OXIDANT IN TOTAL OXIDANTS





           THEORETICAL ROCKET PERFORMANCE ASSUMING FROZEN COMPOSITION

 Pin =    30.0 PSIA
 CASE =                

             REACTANT                    WT FRACTION      ENERGY      TEMP
                                          (SEE NOTE)     KJ/KG-MOL      K  
 FUEL        H2O(L)                       1.0000000   -285841.390    298.000
 OXIDANT     H2O2(L)                      1.0000000   -187793.400    298.000

 O/F=    3.20000  %FUEL= 23.809524  R,EQ.RATIO= 0.613904  PHI,EQ.RATIO= 0.000000

                 CHAMBER   THROAT     EXIT     EXIT     EXIT     EXIT     EXIT     EXIT
 Pinf/P            1.0000   1.8380   1.8380   3.6387   5.0589   6.5290   8.0717   9.6900
 P, BAR            2.0684   1.1253   1.1253  0.56844  0.40887  0.31680  0.25626  0.21346
 T, K              690.08   599.09   599.09   508.89   469.63   441.05   418.46   399.82
 RHO, KG/CU M    7.7004-1 4.8258-1 4.8258-1 2.8697-1 2.2367-1 1.8453-1 1.5732-1 1.3716-1
 H, KJ/KG        -7984.20 -8136.72 -8136.72 -8283.72 -8346.45 -8391.65 -8427.12 -8456.22
 U, KJ/KG        -8252.82 -8369.92 -8369.92 -8481.81 -8529.25 -8563.33 -8590.01 -8611.85
 G, KJ/KG        -15085.0 -14301.2 -14301.2 -13520.1 -13178.8 -12929.9 -12732.9 -12570.3
 S, KJ/(KG)(K)    10.2897  10.2897  10.2897  10.2897  10.2897  10.2897  10.2897  10.2897

 M, (1/n)          21.361   21.361   21.361   21.361   21.361   21.361   21.361   21.361
 Cp, KJ/(KG)(K)    1.6999   1.6526   1.6526   1.6071   1.5883   1.5752   1.5653   1.5576
 GAMMAs            1.2970   1.3081   1.3081   1.3196   1.3246   1.3282   1.3310   1.3332
 SON VEL,M/SEC      590.2    552.3    552.3    511.3    492.1    477.5    465.6    455.5
 MACH NUMBER        0.000    1.000    1.000    1.514    1.730    1.890    2.021    2.133

 TRANSPORT PROPERTIES (GASES ONLY)
   CONDUCTIVITY IN UNITS OF MILLIWATTS/(CM)(K)

 VISC,MILLIPOISE  0.30542  0.26829  0.26829  0.23038  0.21365  0.20143  0.19177  0.18383

  WITH FROZEN REACTIONS

 Cp, KJ/(KG)(K)    1.6999   1.6526   1.6526   1.6071   1.5883   1.5752   1.5653   1.5576
 CONDUCTIVITY      0.5773   0.4849   0.4849   0.3989   0.3638   0.3393   0.3207   0.3059
 PRANDTL NUMBER    0.8994   0.9144   0.9144   0.9281   0.9328   0.9352   0.9361   0.9361

 PERFORMANCE PARAMETERS

 Ae/At                      1.0000   1.0000   1.2000   1.4000   1.6000   1.8000   2.0000
 CSTAR, M/SEC                776.1    776.1    776.1    776.1    776.1    776.1    776.1
 CF                         0.7117   0.7117   0.9973   1.0968   1.1632   1.2128   1.2520
 Ivac, M/SEC                 974.5    974.5   1029.9   1065.9   1092.9   1114.3   1131.8
 Isp, M/SEC                  552.3    552.3    774.0    851.2    902.7    941.2    971.6

 MOLE FRACTIONS

 H2O             0.76077   *O2             0.23923

  * THERMODYNAMIC PROPERTIES FITTED TO 20000.K

    PRODUCTS WHICH WERE CONSIDERED BUT WHOSE MOLE FRACTIONS
    WERE LESS THAN 5.000000E-06 FOR ALL ASSIGNED CONDITIONS

 *H              HO2             *H2             H2O2            *O             
 *OH             O3              H2O(cr)         H2O(L)         

 NOTE. WEIGHT FRACTION OF FUEL IN TOTAL FUELS AND OF OXIDANT IN TOTAL OXIDANTS






 POINT ITN      T            H           O 
   1    1     690.083     -26.101     -13.039
 Pinf/Pt = 1.830593
   2    3     599.663     -29.341     -13.201
 Pinf/Pt = 1.837987
   2    2     599.094     -29.364     -13.202
 Pinf/Pt = 1.838032
   2    1     599.091     -29.364     -13.202
   3    1     599.091     -29.364     -13.202
   4    3     516.201     -33.338     -13.388
   4    2     508.729     -33.760     -13.407
   4    2     508.890     -33.750     -13.407
   5    3     477.672     -35.654     -13.492
   5    2     469.521     -36.193     -13.515
   5    2     469.630     -36.186     -13.515
   6    3     448.049     -37.706     -13.581
   6    2     440.992     -38.236     -13.604
   6    2     441.050     -38.231     -13.603
   7    2     423.824     -39.597     -13.662
   7    2     418.431     -40.048     -13.681
   7    1     418.458     -40.046     -13.681
   8    3     399.083     -41.766     -13.753
   8    2     399.823     -41.697     -13.750





              THEORETICAL ROCKET PERFORMANCE ASSUMING EQUILIBRIUM

           COMPOSITION DURING EXPANSION FROM INFINITE AREA COMBUSTOR

 Pin =    40.0 PSIA
 CASE =                

             REACTANT                    WT FRACTION      ENERGY      TEMP
                                          (SEE NOTE)     KJ/KG-MOL      K  
 FUEL        H2O(L)                       1.0000000   -285841.390    298.000
 OXIDANT     H2O2(L)                      1.0000000   -187793.400    298.000

 O/F=    3.20000  %FUEL= 23.809524  R,EQ.RATIO= 0.613904  PHI,EQ.RATIO= 0.000000

                 CHAMBER   THROAT     EXIT     EXIT     EXIT     EXIT     EXIT     EXIT
 Pinf/P            1.0000   1.8380   1.8380   3.6387   5.0589   6.5290   8.0717   9.6900
 P, BAR            2.7579   1.5005   1.5005  0.75792  0.54516  0.42240  0.34167  0.28461
 T, K              690.08   599.09   599.09   508.89   469.63   441.05   418.46   399.82
 RHO, KG/CU M    1.0267 0 6.4344-1 6.4344-1 3.8263-1 2.9822-1 2.4605-1 2.0977-1 1.8288-1
 H, KJ/KG        -7984.20 -8136.72 -8136.72 -8283.72 -8346.45 -8391.65 -8427.12 -8456.22
 U, KJ/KG        -8252.82 -8369.92 -8369.92 -8481.81 -8529.25 -8563.33 -8590.01 -8611.85
 G, KJ/KG        -15007.7 -14234.1 -14234.1 -13463.1 -13126.2 -12880.5 -12686.1 -12525.5
 S, KJ/(KG)(K)    10.1777  10.1777  10.1777  10.1777  10.1777  10.1777  10.1777  10.1777

 M, (1/n)          21.361   21.361   21.361   21.361   21.361   21.361   21.361   21.361
 (dLV/dLP)t      -1.00000 -1.00000 -1.00000 -1.00000 -1.00000 -1.00000 -1.00000 -1.00000
 (dLV/dLT)p        1.0000   1.0000   1.0000   1.0000   1.0000   1.0000   1.0000   1.0000
 Cp, KJ/(KG)(K)    1.6999   1.6526   1.6526   1.6071   1.5883   1.5752   1.5653   1.5576
 GAMMAs            1.2970   1.3081   1.3081   1.3196   1.3246   1.3282   1.3310   1.3332
 SON VEL,M/SEC      590.2    552.3    552.3    511.3    492.1    477.5    465.6    455.5
 MACH NUMBER        0.000    1.000    1.000    1.514    1.730    1.890    2.021    2.133

 TRANSPORT PROPERTIES (GASES ONLY)
   CONDUCTIVITY IN UNITS OF MILLIWATTS/(CM)(K)

 VISC,MILLIPOISE  0.30542  0.26829  0.26829  0.23038  0.21365  0.20143  0.19177  0.18383

  WITH EQUILIBRIUM REACTIONS

 Cp, KJ/(KG)(K)    1.6999   1.6526   1.6526   1.6071   1.5883   1.5752   1.5653   1.5576
 CONDUCTIVITY      0.5773   0.4849   0.4849   0.3989   0.3638   0.3393   0.3207   0.3059
 PRANDTL NUMBER    0.8994   0.9144   0.9144   0.9281   0.9328   0.9352   0.9361   0.9361

  WITH FROZEN REACTIONS

 Cp, KJ/(KG)(K)    1.6999   1.6526   1.6526   1.6071   1.5883   1.5752   1.5653   1.5576
 CONDUCTIVITY      0.5773   0.4849   0.4849   0.3989   0.3638   0.3393   0.3207   0.3059
 PRANDTL NUMBER    0.8994   0.9144   0.9144   0.9281   0.9328   0.9352   0.9361   0.9361

 PERFORMANCE PARAMETERS

 Ae/At                      1.0000   1.0000   1.2000   1.4000   1.6000   1.8000   2.0000
 CSTAR, M/SEC                776.1    776.1    776.1    776.1    776.1    776.1    776.1
 CF                         0.7117   0.7117   0.9973   1.0968   1.1632   1.2128   1.2520
 Ivac, M/SEC                 974.5    974.5   1029.9   1065.9   1092.9   1114.3   1131.8
 Isp, M/SEC                  552.3    552.3    774.0    851.2    902.7    941.2    971.6


 MOLE FRACTIONS

 H2O              0.76077  0.76077  0.76077  0.76077  0.76077  0.76077  0.76077  0.76077
 *O2              0.23923  0.23923  0.23923  0.23923  0.23923  0.23923  0.23923  0.23923

  * THERMODYNAMIC PROPERTIES FITTED TO 20000.K

    PRODUCTS WHICH WERE CONSIDERED BUT WHOSE MOLE FRACTIONS
    WERE LESS THAN 5.000000E-06 FOR ALL ASSIGNED CONDITIONS

 *H              HO2             *H2             H2O2            *O             
 *OH             O3              H2O(cr)         H2O(L)         

 NOTE. WEIGHT FRACTION OF FUEL IN TOTAL FUELS AND OF OXIDANT IN TOTAL OXIDANTS





           THEORETICAL ROCKET PERFORMANCE ASSUMING FROZEN COMPOSITION

 Pin =    40.0 PSIA
 CASE =                

             REACTANT                    WT FRACTION      ENERGY      TEMP
                                          (SEE NOTE)     KJ/KG-MOL      K  
 FUEL        H2O(L)                       1.0000000   -285841.390    298.000
 OXIDANT     H2O2(L)                      1.0000000   -187793.400    298.000

 O/F=    3.20000  %FUEL= 23.809524  R,EQ.RATIO= 0.613904  PHI,EQ.RATIO= 0.000000

                 CHAMBER   THROAT     EXIT     EXIT     EXIT     EXIT     EXIT     EXIT
 Pinf/P            1.0000   1.8380   1.8380   3.6387   5.0589   6.5290   8.0717   9.6900
 P, BAR            2.7579   1.5005   1.5005  0.75792  0.54516  0.42240  0.34167  0.28461
 T, K              690.08   599.09   599.09   508.89   469.63   441.05   418.46   399.82
 RHO, KG/CU M    1.0267 0 6.4344-1 6.4344-1 3.8263-1 2.9822-1 2.4605-1 2.0977-1 1.8288-1
 H, KJ/KG        -7984.20 -8136.72 -8136.72 -8283.72 -8346.45 -8391.65 -8427.12 -8456.22
 U, KJ/KG        -8252.82 -8369.92 -8369.92 -8481.81 -8529.25 -8563.33 -8590.01 -8611.85
 G, KJ/KG        -15007.7 -14234.1 -14234.1 -13463.1 -13126.2 -12880.5 -12686.1 -12525.5
 S, KJ/(KG)(K)    10.1777  10.1777  10.1777  10.1777  10.1777  10.1777  10.1777  10.1777

 M, (1/n)          21.361   21.361   21.361   21.361   21.361   21.361   21.361   21.361
 Cp, KJ/(KG)(K)    1.6999   1.6526   1.6526   1.6071   1.5883   1.5752   1.5653   1.5576
 GAMMAs            1.2970   1.3081   1.3081   1.3196   1.3246   1.3282   1.3310   1.3332
 SON VEL,M/SEC      590.2    552.3    552.3    511.3    492.1    477.5    465.6    455.5
 MACH NUMBER        0.000    1.000    1.000    1.514    1.730    1.890    2.021    2.133

 TRANSPORT PROPERTIES (GASES ONLY)
   CONDUCTIVITY IN UNITS OF MILLIWATTS/(CM)(K)

 VISC,MILLIPOISE  0.30542  0.26829  0.26829  0.23038  0.21365  0.20143  0.19177  0.18383

  WITH FROZEN REACTIONS

 Cp, KJ/(KG)(K)    1.6999   1.6526   1.6526   1.6071   1.5883   1.5752   1.5653   1.5576
 CONDUCTIVITY      0.5773   0.4849   0.4849   0.3989   0.3638   0.3393   0.3207   0.3059
 PRANDTL NUMBER    0.8994   0.9144   0.9144   0.9281   0.9328   0.9352   0.9361   0.9361

 PERFORMANCE PARAMETERS

 Ae/At                      1.0000   1.0000   1.2000   1.4000   1.6000   1.8000   2.0000
 CSTAR, M/SEC                776.1    776.1    776.1    776.1    776.1    776.1    776.1
 CF                         0.7117   0.7117   0.9973   1.0968   1.1632   1.2128   1.2520
 Ivac, M/SEC                 974.5    974.5   1029.9   1065.9   1092.9   1114.3   1131.8
 Isp, M/SEC                  552.3    552.3    774.0    851.2    902.7    941.2    971.6

 MOLE FRACTIONS

 H2O             0.76077   *O2             0.23923

  * THERMODYNAMIC PROPERTIES FITTED TO 20000.K

    PRODUCTS WHICH WERE CONSIDERED BUT WHOSE MOLE FRACTIONS
    WERE LESS THAN 5.000000E-06 FOR ALL ASSIGNED CONDITIONS

 *H              HO2             *H2             H2O2            *O             
 *OH             O3              H2O(cr)         H2O(L)         

 NOTE. WEIGHT FRACTION OF FUEL IN TOTAL FUELS AND OF OXIDANT IN TOTAL OXIDANTS






 POINT ITN      T            H           O 
   1    1     690.083     -26.045     -12.927
 Pinf/Pt = 1.830593
   2    3     599.663     -29.285     -13.090
 Pinf/Pt = 1.837987
   2    2     599.094     -29.308     -13.091
 Pinf/Pt = 1.838032
   2    1     599.091     -29.309     -13.091
   3    1     599.091     -29.309     -13.091
   4    3     516.201     -33.282     -13.277
   4    2     508.729     -33.704     -13.296
   4    2     508.890     -33.695     -13.295
   5    3     477.672     -35.598     -13.380
   5    2     469.521     -36.137     -13.404
   5    2     469.630     -36.130     -13.403
   6    3     448.049     -37.650     -13.469
   6    2     440.992     -38.180     -13.492
   6    2     441.050     -38.175     -13.492
   7    2     423.824     -39.541     -13.550
   7    2     418.431     -39.992     -13.569
   7    1     418.458     -39.990     -13.569
   8    3     399.083     -41.710     -13.641
   8    2     399.823     -41.641     -13.638





              THEORETICAL ROCKET PERFORMANCE ASSUMING EQUILIBRIUM

           COMPOSITION DURING EXPANSION FROM INFINITE AREA COMBUSTOR

 Pin =    50.0 PSIA
 CASE =                

             REACTANT                    WT FRACTION      ENERGY      TEMP
                                          (SEE NOTE)     KJ/KG-MOL      K  
 FUEL        H2O(L)                       1.0000000   -285841.390    298.000
 OXIDANT     H2O2(L)                      1.0000000   -187793.400    298.000

 O/F=    3.20000  %FUEL= 23.809524  R,EQ.RATIO= 0.613904  PHI,EQ.RATIO= 0.000000

                 CHAMBER   THROAT     EXIT     EXIT     EXIT     EXIT     EXIT     EXIT
 Pinf/P            1.0000   1.8380   1.8380   3.6387   5.0589   6.5290   8.0717   9.6900
 P, BAR            3.4474   1.8756   1.8756  0.94740  0.68145  0.52800  0.42709  0.35577
 T, K              690.08   599.09   599.09   508.89   469.63   441.05   418.46   399.82
 RHO, KG/CU M    1.2834 0 8.0430-1 8.0430-1 4.7829-1 3.7278-1 3.0756-1 2.6221-1 2.2860-1
 H, KJ/KG        -7984.20 -8136.72 -8136.72 -8283.72 -8346.45 -8391.65 -8427.12 -8456.22
 U, KJ/KG        -8252.82 -8369.92 -8369.92 -8481.81 -8529.25 -8563.33 -8590.01 -8611.85
 G, KJ/KG        -14947.8 -14182.1 -14182.1 -13418.9 -13085.4 -12842.2 -12649.7 -12490.8
 S, KJ/(KG)(K)    10.0909  10.0909  10.0909  10.0909  10.0909  10.0909  10.0909  10.0909

 M, (1/n)          21.361   21.361   21.361   21.361   21.361   21.361   21.361   21.361
 (dLV/dLP)t      -1.00000 -1.00000 -1.00000 -1.00000 -1.00000 -1.00000 -1.00000 -1.00000
 (dLV/dLT)p        1.0000   1.0000   1.0000   1.0000   1.0000   1.0000   1.0000   1.0000
 Cp, KJ/(KG)(K)    1.6999   1.6526   1.6526   1.6071   1.5883   1.5752   1.5653   1.5576
 GAMMAs            1.2970   1.3081   1.3081   1.3196   1.3246   1.3282   1.3310   1.3332
 SON VEL,M/SEC      590.2    552.3    552.3    511.3    492.1    477.5    465.6    455.5
 MACH NUMBER        0.000    1.000    1.000    1.514    1.730    1.890    2.021    2.133

 TRANSPORT PROPERTIES (GASES ONLY)
   CONDUCTIVITY IN UNITS OF MILLIWATTS/(CM)(K)

 VISC,MILLIPOISE  0.30542  0.26829  0.26829  0.23038  0.21365  0.20143  0.19177  0.18383

  WITH EQUILIBRIUM REACTIONS

 Cp, KJ/(KG)(K)    1.6999   1.6526   1.6526   1.6071   1.5883   1.5752   1.5653   1.5576
 CONDUCTIVITY      0.5773   0.4849   0.4849   0.3989   0.3638   0.3393   0.3207   0.3059
 PRANDTL NUMBER    0.8994   0.9144   0.9144   0.9281   0.9328   0.9352   0.9361   0.9361

  WITH FROZEN REACTIONS

 Cp, KJ/(KG)(K)    1.6999   1.6526   1.6526   1.6071   1.5883   1.5752   1.5653   1.5576
 CONDUCTIVITY      0.5773   0.4849   0.4849   0.3989   0.3638   0.3393   0.3207   0.3059
 PRANDTL NUMBER    0.8994   0.9144   0.9144   0.9281   0.9328   0.9352   0.9361   0.9361

 PERFORMANCE PARAMETERS

 Ae/At                      1.0000   1.0000   1.2000   1.4000   1.6000   1.8000   2.0000
 CSTAR, M/SEC                776.1    776.1    776.1    776.1    776.1    776.1    776.1
 CF                         0.7117   0.7117   0.9973   1.0968   1.1632   1.2128   1.2520
 Ivac, M/SEC                 974.5    974.5   1029.9   1065.9   1092.9   1114.3   1131.8
 Isp, M/SEC                  552.3    552.3    774.0    851.2    902.7    941.2    971.6


 MOLE FRACTIONS

 H2O              0.76077  0.76077  0.76077  0.76077  0.76077  0.76077  0.76077  0.76077
 *O2              0.23923  0.23923  0.23923  0.23923  0.23923  0.23923  0.23923  0.23923

  * THERMODYNAMIC PROPERTIES FITTED TO 20000.K

    PRODUCTS WHICH WERE CONSIDERED BUT WHOSE MOLE FRACTIONS
    WERE LESS THAN 5.000000E-06 FOR ALL ASSIGNED CONDITIONS

 *H              HO2             *H2             H2O2            *O             
 *OH             O3              H2O(cr)         H2O(L)         

 NOTE. WEIGHT FRACTION OF FUEL IN TOTAL FUELS AND OF OXIDANT IN TOTAL OXIDANTS





           THEORETICAL ROCKET PERFORMANCE ASSUMING FROZEN COMPOSITION

 Pin =    50.0 PSIA
 CASE =                

             REACTANT                    WT FRACTION      ENERGY      TEMP
                                          (SEE NOTE)     KJ/KG-MOL      K  
 FUEL        H2O(L)                       1.0000000   -285841.390    298.000
 OXIDANT     H2O2(L)                      1.0000000   -187793.400    298.000

 O/F=    3.20000  %FUEL= 23.809524  R,EQ.RATIO= 0.613904  PHI,EQ.RATIO= 0.000000

                 CHAMBER   THROAT     EXIT     EXIT     EXIT     EXIT     EXIT     EXIT
 Pinf/P            1.0000   1.8380   1.8380   3.6387   5.0589   6.5290   8.0717   9.6900
 P, BAR            3.4474   1.8756   1.8756  0.94740  0.68145  0.52800  0.42709  0.35577
 T, K              690.08   599.09   599.09   508.89   469.63   441.05   418.46   399.82
 RHO, KG/CU M    1.2834 0 8.0430-1 8.0430-1 4.7829-1 3.7278-1 3.0756-1 2.6221-1 2.2860-1
 H, KJ/KG        -7984.20 -8136.72 -8136.72 -8283.72 -8346.45 -8391.65 -8427.12 -8456.22
 U, KJ/KG        -8252.82 -8369.92 -8369.92 -8481.81 -8529.25 -8563.33 -8590.01 -8611.85
 G, KJ/KG        -14947.8 -14182.1 -14182.1 -13418.9 -13085.4 -12842.2 -12649.7 -12490.8
 S, KJ/(KG)(K)    10.0909  10.0909  10.0909  10.0909  10.0909  10.0909  10.0909  10.0909

 M, (1/n)          21.361   21.361   21.361   21.361   21.361   21.361   21.361   21.361
 Cp, KJ/(KG)(K)    1.6999   1.6526   1.6526   1.6071   1.5883   1.5752   1.5653   1.5576
 GAMMAs            1.2970   1.3081   1.3081   1.3196   1.3246   1.3282   1.3310   1.3332
 SON VEL,M/SEC      590.2    552.3    552.3    511.3    492.1    477.5    465.6    455.5
 MACH NUMBER        0.000    1.000    1.000    1.514    1.730    1.890    2.021    2.133

 TRANSPORT PROPERTIES (GASES ONLY)
   CONDUCTIVITY IN UNITS OF MILLIWATTS/(CM)(K)

 VISC,MILLIPOISE  0.30542  0.26829  0.26829  0.23038  0.21365  0.20143  0.19177  0.18383

  WITH FROZEN REACTIONS

 Cp, KJ/(KG)(K)    1.6999   1.6526   1.6526   1.6071   1.5883   1.5752   1.5653   1.5576
 CONDUCTIVITY      0.5773   0.4849   0.4849   0.3989   0.3638   0.3393   0.3207   0.3059
 PRANDTL NUMBER    0.8994   0.9144   0.9144   0.9281   0.9328   0.9352   0.9361   0.9361

 PERFORMANCE PARAMETERS

 Ae/At                      1.0000   1.0000   1.2000   1.4000   1.6000   1.8000   2.0000
 CSTAR, M/SEC                776.1    776.1    776.1    776.1    776.1    776.1    776.1
 CF                         0.7117   0.7117   0.9973   1.0968   1.1632   1.2128   1.2520
 Ivac, M/SEC                 974.5    974.5   1029.9   1065.9   1092.9   1114.3   1131.8
 Isp, M/SEC                  552.3    552.3    774.0    851.2    902.7    941.2    971.6

 MOLE FRACTIONS

 H2O             0.76077   *O2             0.23923

  * THERMODYNAMIC PROPERTIES FITTED TO 20000.K

    PRODUCTS WHICH WERE CONSIDERED BUT WHOSE MOLE FRACTIONS
    WERE LESS THAN 5.000000E-06 FOR ALL ASSIGNED CONDITIONS

 *H              HO2             *H2             H2O2            *O             
 *OH             O3              H2O(cr)         H2O(L)         

 NOTE. WEIGHT FRACTION OF FUEL IN TOTAL FUELS AND OF OXIDANT IN TOTAL OXIDANTS






 O/F =   3.400000

                       EFFECTIVE FUEL     EFFECTIVE OXIDANT        MIXTURE
 ENTHALPY                  h(2)/R              h(1)/R               h0/R
 (KG-MOL)(K)/KG       -0.19083035E+04     -0.66401406E+03     -0.94680711E+03

 KG-FORM.WT./KG             bi(2)               bi(1)               b0i
  *H                   0.11101687E+00      0.58798142E-01      0.70666035E-01
  *O                   0.55508435E-01      0.58798142E-01      0.58050482E-01

 POINT ITN      T            H           O 
   1    3     716.884     -25.519     -13.418
 Pinf/Pt = 1.828806
   2    3     623.735     -28.608     -13.576
 Pinf/Pt = 1.836295
   2    2     623.139     -28.631     -13.577
 Pinf/Pt = 1.836342
   2    1     623.136     -28.631     -13.577
   3    1     623.136     -28.631     -13.577
   4    3     537.440     -32.425     -13.758
   4    2     529.831     -32.821     -13.776
   4    2     529.993     -32.812     -13.776
   5    3     497.548     -34.636     -13.858
   5    2     489.266     -35.141     -13.880
   5    2     489.375     -35.134     -13.880
   6    3     466.848     -36.595     -13.944
   6    2     459.715     -37.088     -13.966
   6    2     459.772     -37.084     -13.966
   7    3     441.723     -38.402     -14.022
   7    2     436.324     -38.817     -14.040
   7    1     436.350     -38.815     -14.040
   8    3     416.239     -40.456     -14.110
   8    2     417.015     -40.390     -14.107





              THEORETICAL ROCKET PERFORMANCE ASSUMING EQUILIBRIUM

           COMPOSITION DURING EXPANSION FROM INFINITE AREA COMBUSTOR

 Pin =    20.0 PSIA
 CASE =                

             REACTANT                    WT FRACTION      ENERGY      TEMP
                                          (SEE NOTE)     KJ/KG-MOL      K  
 FUEL        H2O(L)                       1.0000000   -285841.390    298.000
 OXIDANT     H2O2(L)                      1.0000000   -187793.400    298.000

 O/F=    3.40000  %FUEL= 22.727273  R,EQ.RATIO= 0.608660  PHI,EQ.RATIO= 0.000000

                 CHAMBER   THROAT     EXIT     EXIT     EXIT     EXIT     EXIT     EXIT
 Pinf/P            1.0000   1.8363   1.8363   3.6320   5.0475   6.5126   8.0497   9.6621
 P, BAR            1.3789  0.75092  0.75092  0.37967  0.27319  0.21174  0.17130  0.14272
 T, K              716.88   623.14   623.14   529.99   489.37   459.77   436.35   417.01
 RHO, KG/CU M    4.9547-1 3.1041-1 3.1041-1 1.8452-1 1.4380-1 1.1862-1 1.0112-1 8.8155-2
 H, KJ/KG        -7872.24 -8030.12 -8030.12 -8182.50 -8247.60 -8294.53 -8331.39 -8361.63
 U, KJ/KG        -8150.55 -8272.03 -8272.03 -8388.26 -8437.58 -8473.03 -8500.79 -8523.52
 G, KJ/KG        -15391.7 -14566.2 -14566.2 -13741.6 -13380.7 -13117.1 -12908.3 -12735.7
 S, KJ/(KG)(K)    10.4890  10.4890  10.4890  10.4890  10.4890  10.4890  10.4890  10.4890

 M, (1/n)          21.417   21.417   21.417   21.417   21.417   21.417   21.417   21.417
 (dLV/dLP)t      -1.00000 -1.00000 -1.00000 -1.00000 -1.00000 -1.00000 -1.00000 -1.00000
 (dLV/dLT)p        1.0000   1.0000   1.0000   1.0000   1.0000   1.0000   1.0000   1.0000
 Cp, KJ/(KG)(K)    1.7085   1.6598   1.6598   1.6125   1.5926   1.5787   1.5681   1.5598
 GAMMAs            1.2941   1.3053   1.3053   1.3171   1.3223   1.3261   1.3290   1.3314
 SON VEL,M/SEC      600.1    561.9    561.9    520.6    501.2    486.5    474.5    464.3
 MACH NUMBER        0.000    1.000    1.000    1.513    1.729    1.889    2.020    2.131

 TRANSPORT PROPERTIES (GASES ONLY)
   CONDUCTIVITY IN UNITS OF MILLIWATTS/(CM)(K)

 VISC,MILLIPOISE  0.31688  0.27900  0.27900  0.24012  0.22286  0.21021  0.20018  0.19191

  WITH EQUILIBRIUM REACTIONS

 Cp, KJ/(KG)(K)    1.7085   1.6598   1.6598   1.6125   1.5926   1.5787   1.5681   1.5598
 CONDUCTIVITY      0.6054   0.5090   0.5090   0.4189   0.3817   0.3557   0.3359   0.3200
 PRANDTL NUMBER    0.8943   0.9097   0.9097   0.9244   0.9298   0.9329   0.9346   0.9353

  WITH FROZEN REACTIONS

 Cp, KJ/(KG)(K)    1.7085   1.6598   1.6598   1.6125   1.5926   1.5787   1.5681   1.5598
 CONDUCTIVITY      0.6054   0.5090   0.5090   0.4189   0.3817   0.3557   0.3359   0.3200
 PRANDTL NUMBER    0.8943   0.9097   0.9097   0.9244   0.9298   0.9329   0.9346   0.9353

 PERFORMANCE PARAMETERS

 Ae/At                      1.0000   1.0000   1.2000   1.4000   1.6000   1.8000   2.0000
 CSTAR, M/SEC                790.5    790.5    790.5    790.5    790.5    790.5    790.5
 CF                         0.7108   0.7108   0.9964   1.0960   1.1625   1.2122   1.2514
 Ivac, M/SEC                 992.4    992.4   1048.9   1085.7   1113.2   1135.1   1153.0
 Isp, M/SEC                  561.9    561.9    787.7    866.4    919.0    958.3    989.3


 MOLE FRACTIONS

 H2O              0.75673  0.75673  0.75673  0.75673  0.75673  0.75673  0.75673  0.75673
 *O2              0.24327  0.24327  0.24327  0.24327  0.24327  0.24327  0.24327  0.24327

  * THERMODYNAMIC PROPERTIES FITTED TO 20000.K

    PRODUCTS WHICH WERE CONSIDERED BUT WHOSE MOLE FRACTIONS
    WERE LESS THAN 5.000000E-06 FOR ALL ASSIGNED CONDITIONS

 *H              HO2             *H2             H2O2            *O             
 *OH             O3              H2O(cr)         H2O(L)         

 NOTE. WEIGHT FRACTION OF FUEL IN TOTAL FUELS AND OF OXIDANT IN TOTAL OXIDANTS





           THEORETICAL ROCKET PERFORMANCE ASSUMING FROZEN COMPOSITION

 Pin =    20.0 PSIA
 CASE =                

             REACTANT                    WT FRACTION      ENERGY      TEMP
                                          (SEE NOTE)     KJ/KG-MOL      K  
 FUEL        H2O(L)                       1.0000000   -285841.390    298.000
 OXIDANT     H2O2(L)                      1.0000000   -187793.400    298.000

 O/F=    3.40000  %FUEL= 22.727273  R,EQ.RATIO= 0.608660  PHI,EQ.RATIO= 0.000000

                 CHAMBER   THROAT     EXIT     EXIT     EXIT     EXIT     EXIT     EXIT
 Pinf/P            1.0000   1.8363   1.8363   3.6320   5.0475   6.5126   8.0497   9.6621
 P, BAR            1.3789  0.75092  0.75092  0.37967  0.27319  0.21174  0.17130  0.14272
 T, K              716.88   623.14   623.14   529.99   489.37   459.77   436.35   417.01
 RHO, KG/CU M    4.9547-1 3.1041-1 3.1041-1 1.8452-1 1.4380-1 1.1862-1 1.0112-1 8.8155-2
 H, KJ/KG        -7872.24 -8030.12 -8030.12 -8182.50 -8247.60 -8294.53 -8331.39 -8361.63
 U, KJ/KG        -8150.55 -8272.03 -8272.03 -8388.26 -8437.58 -8473.03 -8500.79 -8523.52
 G, KJ/KG        -15391.7 -14566.2 -14566.2 -13741.6 -13380.7 -13117.1 -12908.3 -12735.7
 S, KJ/(KG)(K)    10.4890  10.4890  10.4890  10.4890  10.4890  10.4890  10.4890  10.4890

 M, (1/n)          21.417   21.417   21.417   21.417   21.417   21.417   21.417   21.417
 Cp, KJ/(KG)(K)    1.7085   1.6598   1.6598   1.6125   1.5926   1.5787   1.5681   1.5598
 GAMMAs            1.2941   1.3053   1.3053   1.3171   1.3223   1.3261   1.3290   1.3314
 SON VEL,M/SEC      600.1    561.9    561.9    520.6    501.2    486.5    474.5    464.3
 MACH NUMBER        0.000    1.000    1.000    1.513    1.729    1.889    2.020    2.131

 TRANSPORT PROPERTIES (GASES ONLY)
   CONDUCTIVITY IN UNITS OF MILLIWATTS/(CM)(K)

 VISC,MILLIPOISE  0.31688  0.27900  0.27900  0.24012  0.22286  0.21021  0.20018  0.19191

  WITH FROZEN REACTIONS

 Cp, KJ/(KG)(K)    1.7085   1.6598   1.6598   1.6125   1.5926   1.5787   1.5681   1.5598
 CONDUCTIVITY      0.6054   0.5090   0.5090   0.4189   0.3817   0.3557   0.3359   0.3200
 PRANDTL NUMBER    0.8943   0.9097   0.9097   0.9244   0.9298   0.9329   0.9346   0.9353

 PERFORMANCE PARAMETERS

 Ae/At                      1.0000   1.0000   1.2000   1.4000   1.6000   1.8000   2.0000
 CSTAR, M/SEC                790.5    790.5    790.5    790.5    790.5    790.5    790.5
 CF                         0.7108   0.7108   0.9964   1.0960   1.1625   1.2122   1.2514
 Ivac, M/SEC                 992.4    992.4   1048.9   1085.7   1113.2   1135.1   1153.0
 Isp, M/SEC                  561.9    561.9    787.7    866.4    919.0    958.3    989.3

 MOLE FRACTIONS

 H2O             0.75673   *O2             0.24327

  * THERMODYNAMIC PROPERTIES FITTED TO 20000.K

    PRODUCTS WHICH WERE CONSIDERED BUT WHOSE MOLE FRACTIONS
    WERE LESS THAN 5.000000E-06 FOR ALL ASSIGNED CONDITIONS

 *H              HO2             *H2             H2O2            *O             
 *OH             O3              H2O(cr)         H2O(L)         

 NOTE. WEIGHT FRACTION OF FUEL IN TOTAL FUELS AND OF OXIDANT IN TOTAL OXIDANTS






 POINT ITN      T            H           O 
   1    1     716.884     -25.418     -13.215
 Pinf/Pt = 1.828806
   2    3     623.735     -28.507     -13.373
 Pinf/Pt = 1.836295
   2    2     623.139     -28.530     -13.375
 Pinf/Pt = 1.836342
   2    1     623.136     -28.530     -13.375
   3    1     623.136     -28.530     -13.375
   4    3     537.440     -32.323     -13.555
   4    2     529.831     -32.720     -13.573
   4    2     529.993     -32.711     -13.573
   5    3     497.548     -34.535     -13.655
   5    2     489.266     -35.039     -13.678
   5    2     489.375     -35.032     -13.677
   6    3     466.848     -36.494     -13.742
   6    2     459.715     -36.987     -13.763
   6    2     459.772     -36.983     -13.763
   7    3     441.723     -38.300     -13.820
   7    2     436.324     -38.715     -13.838
   7    1     436.350     -38.713     -13.837
   8    3     416.239     -40.355     -13.907
   8    2     417.015     -40.289     -13.904





              THEORETICAL ROCKET PERFORMANCE ASSUMING EQUILIBRIUM

           COMPOSITION DURING EXPANSION FROM INFINITE AREA COMBUSTOR

 Pin =    30.0 PSIA
 CASE =                

             REACTANT                    WT FRACTION      ENERGY      TEMP
                                          (SEE NOTE)     KJ/KG-MOL      K  
 FUEL        H2O(L)                       1.0000000   -285841.390    298.000
 OXIDANT     H2O2(L)                      1.0000000   -187793.400    298.000

 O/F=    3.40000  %FUEL= 22.727273  R,EQ.RATIO= 0.608660  PHI,EQ.RATIO= 0.000000

                 CHAMBER   THROAT     EXIT     EXIT     EXIT     EXIT     EXIT     EXIT
 Pinf/P            1.0000   1.8363   1.8363   3.6320   5.0475   6.5126   8.0497   9.6621
 P, BAR            2.0684   1.1264   1.1264  0.56950  0.40979  0.31760  0.25695  0.21407
 T, K              716.88   623.14   623.14   529.99   489.37   459.77   436.35   417.01
 RHO, KG/CU M    7.4321-1 4.6561-1 4.6561-1 2.7679-1 2.1570-1 1.7794-1 1.5169-1 1.3223-1
 H, KJ/KG        -7872.24 -8030.12 -8030.12 -8182.50 -8247.60 -8294.53 -8331.39 -8361.63
 U, KJ/KG        -8150.55 -8272.03 -8272.03 -8388.26 -8437.58 -8473.03 -8500.79 -8523.52
 G, KJ/KG        -15278.8 -14468.1 -14468.1 -13658.2 -13303.6 -13044.7 -12839.6 -12670.1
 S, KJ/(KG)(K)    10.3316  10.3316  10.3316  10.3316  10.3316  10.3316  10.3316  10.3316

 M, (1/n)          21.417   21.417   21.417   21.417   21.417   21.417   21.417   21.417
 (dLV/dLP)t      -1.00000 -1.00000 -1.00000 -1.00000 -1.00000 -1.00000 -1.00000 -1.00000
 (dLV/dLT)p        1.0000   1.0000   1.0000   1.0000   1.0000   1.0000   1.0000   1.0000
 Cp, KJ/(KG)(K)    1.7085   1.6598   1.6598   1.6125   1.5926   1.5787   1.5681   1.5598
 GAMMAs            1.2941   1.3053   1.3053   1.3171   1.3223   1.3261   1.3290   1.3314
 SON VEL,M/SEC      600.1    561.9    561.9    520.6    501.2    486.5    474.5    464.3
 MACH NUMBER        0.000    1.000    1.000    1.513    1.729    1.889    2.020    2.131

 TRANSPORT PROPERTIES (GASES ONLY)
   CONDUCTIVITY IN UNITS OF MILLIWATTS/(CM)(K)

 VISC,MILLIPOISE  0.31688  0.27900  0.27900  0.24012  0.22286  0.21021  0.20018  0.19191

  WITH EQUILIBRIUM REACTIONS

 Cp, KJ/(KG)(K)    1.7085   1.6598   1.6598   1.6125   1.5926   1.5787   1.5681   1.5598
 CONDUCTIVITY      0.6054   0.5090   0.5090   0.4189   0.3817   0.3557   0.3359   0.3200
 PRANDTL NUMBER    0.8943   0.9097   0.9097   0.9244   0.9298   0.9329   0.9346   0.9353

  WITH FROZEN REACTIONS

 Cp, KJ/(KG)(K)    1.7085   1.6598   1.6598   1.6125   1.5926   1.5787   1.5681   1.5598
 CONDUCTIVITY      0.6054   0.5090   0.5090   0.4189   0.3817   0.3557   0.3359   0.3200
 PRANDTL NUMBER    0.8943   0.9097   0.9097   0.9244   0.9298   0.9329   0.9346   0.9353

 PERFORMANCE PARAMETERS

 Ae/At                      1.0000   1.0000   1.2000   1.4000   1.6000   1.8000   2.0000
 CSTAR, M/SEC                790.5    790.5    790.5    790.5    790.5    790.5    790.5
 CF                         0.7108   0.7108   0.9964   1.0960   1.1625   1.2122   1.2514
 Ivac, M/SEC                 992.4    992.4   1048.9   1085.7   1113.2   1135.1   1153.0
 Isp, M/SEC                  561.9    561.9    787.7    866.4    919.0    958.3    989.3


 MOLE FRACTIONS

 H2O              0.75673  0.75673  0.75673  0.75673  0.75673  0.75673  0.75673  0.75673
 *O2              0.24327  0.24327  0.24327  0.24327  0.24327  0.24327  0.24327  0.24327

  * THERMODYNAMIC PROPERTIES FITTED TO 20000.K

    PRODUCTS WHICH WERE CONSIDERED BUT WHOSE MOLE FRACTIONS
    WERE LESS THAN 5.000000E-06 FOR ALL ASSIGNED CONDITIONS

 *H              HO2             *H2             H2O2            *O             
 *OH             O3              H2O(cr)         H2O(L)         

 NOTE. WEIGHT FRACTION OF FUEL IN TOTAL FUELS AND OF OXIDANT IN TOTAL OXIDANTS





           THEORETICAL ROCKET PERFORMANCE ASSUMING FROZEN COMPOSITION

 Pin =    30.0 PSIA
 CASE =                

             REACTANT                    WT FRACTION      ENERGY      TEMP
                                          (SEE NOTE)     KJ/KG-MOL      K  
 FUEL        H2O(L)                       1.0000000   -285841.390    298.000
 OXIDANT     H2O2(L)                      1.0000000   -187793.400    298.000

 O/F=    3.40000  %FUEL= 22.727273  R,EQ.RATIO= 0.608660  PHI,EQ.RATIO= 0.000000

                 CHAMBER   THROAT     EXIT     EXIT     EXIT     EXIT     EXIT     EXIT
 Pinf/P            1.0000   1.8363   1.8363   3.6320   5.0475   6.5126   8.0497   9.6621
 P, BAR            2.0684   1.1264   1.1264  0.56950  0.40979  0.31760  0.25695  0.21407
 T, K              716.88   623.14   623.14   529.99   489.37   459.77   436.35   417.01
 RHO, KG/CU M    7.4321-1 4.6561-1 4.6561-1 2.7679-1 2.1570-1 1.7794-1 1.5169-1 1.3223-1
 H, KJ/KG        -7872.24 -8030.12 -8030.12 -8182.50 -8247.60 -8294.53 -8331.39 -8361.63
 U, KJ/KG        -8150.55 -8272.03 -8272.03 -8388.26 -8437.58 -8473.03 -8500.79 -8523.52
 G, KJ/KG        -15278.8 -14468.1 -14468.1 -13658.2 -13303.6 -13044.7 -12839.6 -12670.1
 S, KJ/(KG)(K)    10.3316  10.3316  10.3316  10.3316  10.3316  10.3316  10.3316  10.3316

 M, (1/n)          21.417   21.417   21.417   21.417   21.417   21.417   21.417   21.417
 Cp, KJ/(KG)(K)    1.7085   1.6598   1.6598   1.6125   1.5926   1.5787   1.5681   1.5598
 GAMMAs            1.2941   1.3053   1.3053   1.3171   1.3223   1.3261   1.3290   1.3314
 SON VEL,M/SEC      600.1    561.9    561.9    520.6    501.2    486.5    474.5    464.3
 MACH NUMBER        0.000    1.000    1.000    1.513    1.729    1.889    2.020    2.131

 TRANSPORT PROPERTIES (GASES ONLY)
   CONDUCTIVITY IN UNITS OF MILLIWATTS/(CM)(K)

 VISC,MILLIPOISE  0.31688  0.27900  0.27900  0.24012  0.22286  0.21021  0.20018  0.19191

  WITH FROZEN REACTIONS

 Cp, KJ/(KG)(K)    1.7085   1.6598   1.6598   1.6125   1.5926   1.5787   1.5681   1.5598
 CONDUCTIVITY      0.6054   0.5090   0.5090   0.4189   0.3817   0.3557   0.3359   0.3200
 PRANDTL NUMBER    0.8943   0.9097   0.9097   0.9244   0.9298   0.9329   0.9346   0.9353

 PERFORMANCE PARAMETERS

 Ae/At                      1.0000   1.0000   1.2000   1.4000   1.6000   1.8000   2.0000
 CSTAR, M/SEC                790.5    790.5    790.5    790.5    790.5    790.5    790.5
 CF                         0.7108   0.7108   0.9964   1.0960   1.1625   1.2122   1.2514
 Ivac, M/SEC                 992.4    992.4   1048.9   1085.7   1113.2   1135.1   1153.0
 Isp, M/SEC                  561.9    561.9    787.7    866.4    919.0    958.3    989.3

 MOLE FRACTIONS

 H2O             0.75673   *O2             0.24327

  * THERMODYNAMIC PROPERTIES FITTED TO 20000.K

    PRODUCTS WHICH WERE CONSIDERED BUT WHOSE MOLE FRACTIONS
    WERE LESS THAN 5.000000E-06 FOR ALL ASSIGNED CONDITIONS

 *H              HO2             *H2             H2O2            *O             
 *OH             O3              H2O(cr)         H2O(L)         

 NOTE. WEIGHT FRACTION OF FUEL IN TOTAL FUELS AND OF OXIDANT IN TOTAL OXIDANTS






 POINT ITN      T            H           O 
   1    1     716.884     -25.346     -13.071
 Pinf/Pt = 1.828806
   2    3     623.735     -28.435     -13.230
 Pinf/Pt = 1.836295
   2    2     623.139     -28.458     -13.231
 Pinf/Pt = 1.836342
   2    1     623.136     -28.458     -13.231
   3    1     623.136     -28.458     -13.231
   4    3     537.440     -32.251     -13.411
   4    2     529.831     -32.648     -13.429
   4    2     529.993     -32.639     -13.429
   5    3     497.548     -34.463     -13.511
   5    2     489.266     -34.967     -13.534
   5    2     489.375     -34.961     -13.534
   6    3     466.848     -36.422     -13.598
   6    2     459.715     -36.915     -13.619
   6    2     459.772     -36.911     -13.619
   7    3     441.723     -38.228     -13.676
   7    2     436.324     -38.644     -13.694
   7    1     436.350     -38.641     -13.694
   8    3     416.239     -40.283     -13.763
   8    2     417.015     -40.217     -13.760





              THEORETICAL ROCKET PERFORMANCE ASSUMING EQUILIBRIUM

           COMPOSITION DURING EXPANSION FROM INFINITE AREA COMBUSTOR

 Pin =    40.0 PSIA
 CASE =                

             REACTANT                    WT FRACTION      ENERGY      TEMP
                                          (SEE NOTE)     KJ/KG-MOL      K  
 FUEL        H2O(L)                       1.0000000   -285841.390    298.000
 OXIDANT     H2O2(L)                      1.0000000   -187793.400    298.000

 O/F=    3.40000  %FUEL= 22.727273  R,EQ.RATIO= 0.608660  PHI,EQ.RATIO= 0.000000

                 CHAMBER   THROAT     EXIT     EXIT     EXIT     EXIT     EXIT     EXIT
 Pinf/P            1.0000   1.8363   1.8363   3.6320   5.0475   6.5126   8.0497   9.6621
 P, BAR            2.7579   1.5018   1.5018  0.75933  0.54639  0.42347  0.34261  0.28543
 T, K              716.88   623.14   623.14   529.99   489.37   459.77   436.35   417.01
 RHO, KG/CU M    9.9095-1 6.2082-1 6.2082-1 3.6905-1 2.8760-1 2.3725-1 2.0225-1 1.7631-1
 H, KJ/KG        -7872.24 -8030.12 -8030.12 -8182.50 -8247.60 -8294.53 -8331.39 -8361.63
 U, KJ/KG        -8150.55 -8272.03 -8272.03 -8388.26 -8437.58 -8473.03 -8500.79 -8523.52
 G, KJ/KG        -15198.8 -14398.5 -14398.5 -13599.0 -13249.0 -12993.4 -12790.9 -12623.5
 S, KJ/(KG)(K)    10.2199  10.2199  10.2199  10.2199  10.2199  10.2199  10.2199  10.2199

 M, (1/n)          21.417   21.417   21.417   21.417   21.417   21.417   21.417   21.417
 (dLV/dLP)t      -1.00000 -1.00000 -1.00000 -1.00000 -1.00000 -1.00000 -1.00000 -1.00000
 (dLV/dLT)p        1.0000   1.0000   1.0000   1.0000   1.0000   1.0000   1.0000   1.0000
 Cp, KJ/(KG)(K)    1.7085   1.6598   1.6598   1.6125   1.5926   1.5787   1.5681   1.5598
 GAMMAs            1.2941   1.3053   1.3053   1.3171   1.3223   1.3261   1.3290   1.3314
 SON VEL,M/SEC      600.1    561.9    561.9    520.6    501.2    486.5    474.5    464.3
 MACH NUMBER        0.000    1.000    1.000    1.513    1.729    1.889    2.020    2.131

 TRANSPORT PROPERTIES (GASES ONLY)
   CONDUCTIVITY IN UNITS OF MILLIWATTS/(CM)(K)

 VISC,MILLIPOISE  0.31688  0.27900  0.27900  0.24012  0.22286  0.21021  0.20018  0.19191

  WITH EQUILIBRIUM REACTIONS

 Cp, KJ/(KG)(K)    1.7085   1.6598   1.6598   1.6125   1.5926   1.5787   1.5681   1.5598
 CONDUCTIVITY      0.6054   0.5090   0.5090   0.4189   0.3817   0.3557   0.3359   0.3200
 PRANDTL NUMBER    0.8943   0.9097   0.9097   0.9244   0.9298   0.9329   0.9346   0.9353

  WITH FROZEN REACTIONS

 Cp, KJ/(KG)(K)    1.7085   1.6598   1.6598   1.6125   1.5926   1.5787   1.5681   1.5598
 CONDUCTIVITY      0.6054   0.5090   0.5090   0.4189   0.3817   0.3557   0.3359   0.3200
 PRANDTL NUMBER    0.8943   0.9097   0.9097   0.9244   0.9298   0.9329   0.9346   0.9353

 PERFORMANCE PARAMETERS

 Ae/At                     1.00000   1.0000   1.2000   1.4000   1.6000   1.8000   2.0000
 CSTAR, M/SEC                790.5    790.5    790.5    790.5    790.5    790.5    790.5
 CF                         0.7108   0.7108   0.9964   1.0960   1.1625   1.2122   1.2514
 Ivac, M/SEC                 992.4    992.4   1048.9   1085.7   1113.2   1135.1   1153.0
 Isp, M/SEC                  561.9    561.9    787.7    866.4    919.0    958.3    989.3


 MOLE FRACTIONS

 H2O              0.75673  0.75673  0.75673  0.75673  0.75673  0.75673  0.75673  0.75673
 *O2              0.24327  0.24327  0.24327  0.24327  0.24327  0.24327  0.24327  0.24327

  * THERMODYNAMIC PROPERTIES FITTED TO 20000.K

    PRODUCTS WHICH WERE CONSIDERED BUT WHOSE MOLE FRACTIONS
    WERE LESS THAN 5.000000E-06 FOR ALL ASSIGNED CONDITIONS

 *H              HO2             *H2             H2O2            *O             
 *OH             O3              H2O(cr)         H2O(L)         

 NOTE. WEIGHT FRACTION OF FUEL IN TOTAL FUELS AND OF OXIDANT IN TOTAL OXIDANTS





           THEORETICAL ROCKET PERFORMANCE ASSUMING FROZEN COMPOSITION

 Pin =    40.0 PSIA
 CASE =                

             REACTANT                    WT FRACTION      ENERGY      TEMP
                                          (SEE NOTE)     KJ/KG-MOL      K  
 FUEL        H2O(L)                       1.0000000   -285841.390    298.000
 OXIDANT     H2O2(L)                      1.0000000   -187793.400    298.000

 O/F=    3.40000  %FUEL= 22.727273  R,EQ.RATIO= 0.608660  PHI,EQ.RATIO= 0.000000

                 CHAMBER   THROAT     EXIT     EXIT     EXIT     EXIT     EXIT     EXIT
 Pinf/P            1.0000   1.8363   1.8363   3.6320   5.0475   6.5126   8.0497   9.6621
 P, BAR            2.7579   1.5018   1.5018  0.75933  0.54639  0.42347  0.34261  0.28543
 T, K              716.88   623.14   623.14   529.99   489.37   459.77   436.35   417.01
 RHO, KG/CU M    9.9095-1 6.2082-1 6.2082-1 3.6905-1 2.8760-1 2.3725-1 2.0225-1 1.7631-1
 H, KJ/KG        -7872.24 -8030.12 -8030.12 -8182.50 -8247.60 -8294.53 -8331.39 -8361.63
 U, KJ/KG        -8150.55 -8272.03 -8272.03 -8388.26 -8437.58 -8473.03 -8500.79 -8523.52
 G, KJ/KG        -15198.8 -14398.5 -14398.5 -13599.0 -13249.0 -12993.4 -12790.9 -12623.5
 S, KJ/(KG)(K)    10.2199  10.2199  10.2199  10.2199  10.2199  10.2199  10.2199  10.2199

 M, (1/n)          21.417   21.417   21.417   21.417   21.417   21.417   21.417   21.417
 Cp, KJ/(KG)(K)    1.7085   1.6598   1.6598   1.6125   1.5926   1.5787   1.5681   1.5598
 GAMMAs            1.2941   1.3053   1.3053   1.3171   1.3223   1.3261   1.3290   1.3314
 SON VEL,M/SEC      600.1    561.9    561.9    520.6    501.2    486.5    474.5    464.3
 MACH NUMBER        0.000    1.000    1.000    1.513    1.729    1.889    2.020    2.131

 TRANSPORT PROPERTIES (GASES ONLY)
   CONDUCTIVITY IN UNITS OF MILLIWATTS/(CM)(K)

 VISC,MILLIPOISE  0.31688  0.27900  0.27900  0.24012  0.22286  0.21021  0.20018  0.19191

  WITH FROZEN REACTIONS

 Cp, KJ/(KG)(K)    1.7085   1.6598   1.6598   1.6125   1.5926   1.5787   1.5681   1.5598
 CONDUCTIVITY      0.6054   0.5090   0.5090   0.4189   0.3817   0.3557   0.3359   0.3200
 PRANDTL NUMBER    0.8943   0.9097   0.9097   0.9244   0.9298   0.9329   0.9346   0.9353

 PERFORMANCE PARAMETERS

 Ae/At                      1.0000   1.0000   1.2000   1.4000   1.6000   1.8000   2.0000
 CSTAR, M/SEC                790.5    790.5    790.5    790.5    790.5    790.5    790.5
 CF                         0.7108   0.7108   0.9964   1.0960   1.1625   1.2122   1.2514
 Ivac, M/SEC                 992.4    992.4   1048.9   1085.7   1113.2   1135.1   1153.0
 Isp, M/SEC                  561.9    561.9    787.7    866.4    919.0    958.3    989.3

 MOLE FRACTIONS

 H2O             0.75673   *O2             0.24327

  * THERMODYNAMIC PROPERTIES FITTED TO 20000.K

    PRODUCTS WHICH WERE CONSIDERED BUT WHOSE MOLE FRACTIONS
    WERE LESS THAN 5.000000E-06 FOR ALL ASSIGNED CONDITIONS

 *H              HO2             *H2             H2O2            *O             
 *OH             O3              H2O(cr)         H2O(L)         

 NOTE. WEIGHT FRACTION OF FUEL IN TOTAL FUELS AND OF OXIDANT IN TOTAL OXIDANTS






 POINT ITN      T            H           O 
   1    1     716.884     -25.290     -12.960
 Pinf/Pt = 1.828806
   2    3     623.735     -28.379     -13.118
 Pinf/Pt = 1.836295
   2    2     623.139     -28.402     -13.119
 Pinf/Pt = 1.836342
   2    1     623.136     -28.402     -13.119
   3    1     623.136     -28.402     -13.119
   4    3     537.440     -32.196     -13.300
   4    2     529.831     -32.592     -13.318
   4    2     529.993     -32.583     -13.317
   5    3     497.548     -34.407     -13.400
   5    2     489.266     -34.911     -13.422
   5    2     489.375     -34.905     -13.422
   6    3     466.848     -36.366     -13.486
   6    2     459.715     -36.859     -13.508
   6    2     459.772     -36.855     -13.508
   7    3     441.723     -38.172     -13.564
   7    2     436.324     -38.588     -13.582
   7    1     436.350     -38.586     -13.582
   8    3     416.239     -40.227     -13.652
   8    2     417.015     -40.161     -13.649





              THEORETICAL ROCKET PERFORMANCE ASSUMING EQUILIBRIUM

           COMPOSITION DURING EXPANSION FROM INFINITE AREA COMBUSTOR

 Pin =    50.0 PSIA
 CASE =                

             REACTANT                    WT FRACTION      ENERGY      TEMP
                                          (SEE NOTE)     KJ/KG-MOL      K  
 FUEL        H2O(L)                       1.0000000   -285841.390    298.000
 OXIDANT     H2O2(L)                      1.0000000   -187793.400    298.000

 O/F=    3.40000  %FUEL= 22.727273  R,EQ.RATIO= 0.608660  PHI,EQ.RATIO= 0.000000

                 CHAMBER   THROAT     EXIT     EXIT     EXIT     EXIT     EXIT     EXIT
 Pinf/P            1.0000   1.8363   1.8363   3.6320   5.0475   6.5126   8.0497   9.6621
 P, BAR            3.4474   1.8773   1.8773  0.94916  0.68298  0.52934  0.42826  0.35679
 T, K              716.88   623.14   623.14   529.99   489.37   459.77   436.35   417.01
 RHO, KG/CU M    1.2387 0 7.7602-1 7.7602-1 4.6131-1 3.5949-1 2.9656-1 2.5281-1 2.2039-1
 H, KJ/KG        -7872.24 -8030.12 -8030.12 -8182.50 -8247.60 -8294.53 -8331.39 -8361.63
 U, KJ/KG        -8150.55 -8272.03 -8272.03 -8388.26 -8437.58 -8473.03 -8500.79 -8523.52
 G, KJ/KG        -15136.6 -14344.5 -14344.5 -13553.1 -13206.6 -12953.5 -12753.1 -12587.4
 S, KJ/(KG)(K)    10.1333  10.1333  10.1333  10.1333  10.1333  10.1333  10.1333  10.1333

 M, (1/n)          21.417   21.417   21.417   21.417   21.417   21.417   21.417   21.417
 (dLV/dLP)t      -1.00000 -1.00000 -1.00000 -1.00000 -1.00000 -1.00000 -1.00000 -1.00000
 (dLV/dLT)p        1.0000   1.0000   1.0000   1.0000   1.0000   1.0000   1.0000   1.0000
 Cp, KJ/(KG)(K)    1.7085   1.6598   1.6598   1.6125   1.5926   1.5787   1.5681   1.5598
 GAMMAs            1.2941   1.3053   1.3053   1.3171   1.3223   1.3261   1.3290   1.3314
 SON VEL,M/SEC      600.1    561.9    561.9    520.6    501.2    486.5    474.5    464.3
 MACH NUMBER        0.000    1.000    1.000    1.513    1.729    1.889    2.020    2.131

 TRANSPORT PROPERTIES (GASES ONLY)
   CONDUCTIVITY IN UNITS OF MILLIWATTS/(CM)(K)

 VISC,MILLIPOISE  0.31688  0.27900  0.27900  0.24012  0.22286  0.21021  0.20018  0.19191

  WITH EQUILIBRIUM REACTIONS

 Cp, KJ/(KG)(K)    1.7085   1.6598   1.6598   1.6125   1.5926   1.5787   1.5681   1.5598
 CONDUCTIVITY      0.6054   0.5090   0.5090   0.4189   0.3817   0.3557   0.3359   0.3200
 PRANDTL NUMBER    0.8943   0.9097   0.9097   0.9244   0.9298   0.9329   0.9346   0.9353

  WITH FROZEN REACTIONS

 Cp, KJ/(KG)(K)    1.7085   1.6598   1.6598   1.6125   1.5926   1.5787   1.5681   1.5598
 CONDUCTIVITY      0.6054   0.5090   0.5090   0.4189   0.3817   0.3557   0.3359   0.3200
 PRANDTL NUMBER    0.8943   0.9097   0.9097   0.9244   0.9298   0.9329   0.9346   0.9353

 PERFORMANCE PARAMETERS

 Ae/At                      1.0000   1.0000   1.2000   1.4000   1.6000   1.8000   2.0000
 CSTAR, M/SEC                790.5    790.5    790.5    790.5    790.5    790.5    790.5
 CF                         0.7108   0.7108   0.9964   1.0960   1.1625   1.2122   1.2514
 Ivac, M/SEC                 992.4    992.4   1048.9   1085.7   1113.2   1135.1   1153.0
 Isp, M/SEC                  561.9    561.9    787.7    866.4    919.0    958.3    989.3


 MOLE FRACTIONS

 H2O              0.75673  0.75673  0.75673  0.75673  0.75673  0.75673  0.75673  0.75673
 *O2              0.24327  0.24327  0.24327  0.24327  0.24327  0.24327  0.24327  0.24327

  * THERMODYNAMIC PROPERTIES FITTED TO 20000.K

    PRODUCTS WHICH WERE CONSIDERED BUT WHOSE MOLE FRACTIONS
    WERE LESS THAN 5.000000E-06 FOR ALL ASSIGNED CONDITIONS

 *H              HO2             *H2             H2O2            *O             
 *OH             O3              H2O(cr)         H2O(L)         

 NOTE. WEIGHT FRACTION OF FUEL IN TOTAL FUELS AND OF OXIDANT IN TOTAL OXIDANTS





           THEORETICAL ROCKET PERFORMANCE ASSUMING FROZEN COMPOSITION

 Pin =    50.0 PSIA
 CASE =                

             REACTANT                    WT FRACTION      ENERGY      TEMP
                                          (SEE NOTE)     KJ/KG-MOL      K  
 FUEL        H2O(L)                       1.0000000   -285841.390    298.000
 OXIDANT     H2O2(L)                      1.0000000   -187793.400    298.000

 O/F=    3.40000  %FUEL= 22.727273  R,EQ.RATIO= 0.608660  PHI,EQ.RATIO= 0.000000

                 CHAMBER   THROAT     EXIT     EXIT     EXIT     EXIT     EXIT     EXIT
 Pinf/P            1.0000   1.8363   1.8363   3.6320   5.0475   6.5126   8.0497   9.6621
 P, BAR            3.4474   1.8773   1.8773  0.94916  0.68298  0.52934  0.42826  0.35679
 T, K              716.88   623.14   623.14   529.99   489.37   459.77   436.35   417.01
 RHO, KG/CU M    1.2387 0 7.7602-1 7.7602-1 4.6131-1 3.5949-1 2.9656-1 2.5281-1 2.2039-1
 H, KJ/KG        -7872.24 -8030.12 -8030.12 -8182.50 -8247.60 -8294.53 -8331.39 -8361.63
 U, KJ/KG        -8150.55 -8272.03 -8272.03 -8388.26 -8437.58 -8473.03 -8500.79 -8523.52
 G, KJ/KG        -15136.6 -14344.5 -14344.5 -13553.1 -13206.6 -12953.5 -12753.1 -12587.4
 S, KJ/(KG)(K)    10.1333  10.1333  10.1333  10.1333  10.1333  10.1333  10.1333  10.1333

 M, (1/n)          21.417   21.417   21.417   21.417   21.417   21.417   21.417   21.417
 Cp, KJ/(KG)(K)    1.7085   1.6598   1.6598   1.6125   1.5926   1.5787   1.5681   1.5598
 GAMMAs            1.2941   1.3053   1.3053   1.3171   1.3223   1.3261   1.3290   1.3314
 SON VEL,M/SEC      600.1    561.9    561.9    520.6    501.2    486.5    474.5    464.3
 MACH NUMBER        0.000    1.000    1.000    1.513    1.729    1.889    2.020    2.131

 TRANSPORT PROPERTIES (GASES ONLY)
   CONDUCTIVITY IN UNITS OF MILLIWATTS/(CM)(K)

 VISC,MILLIPOISE  0.31688  0.27900  0.27900  0.24012  0.22286  0.21021  0.20018  0.19191

  WITH FROZEN REACTIONS

 Cp, KJ/(KG)(K)    1.7085   1.6598   1.6598   1.6125   1.5926   1.5787   1.5681   1.5598
 CONDUCTIVITY      0.6054   0.5090   0.5090   0.4189   0.3817   0.3557   0.3359   0.3200
 PRANDTL NUMBER    0.8943   0.9097   0.9097   0.9244   0.9298   0.9329   0.9346   0.9353

 PERFORMANCE PARAMETERS

 Ae/At                      1.0000   1.0000   1.2000   1.4000   1.6000   1.8000   2.0000
 CSTAR, M/SEC                790.5    790.5    790.5    790.5    790.5    790.5    790.5
 CF                         0.7108   0.7108   0.9964   1.0960   1.1625   1.2122   1.2514
 Ivac, M/SEC                 992.4    992.4   1048.9   1085.7   1113.2   1135.1   1153.0
 Isp, M/SEC                  561.9    561.9    787.7    866.4    919.0    958.3    989.3

 MOLE FRACTIONS

 H2O             0.75673   *O2             0.24327

  * THERMODYNAMIC PROPERTIES FITTED TO 20000.K

    PRODUCTS WHICH WERE CONSIDERED BUT WHOSE MOLE FRACTIONS
    WERE LESS THAN 5.000000E-06 FOR ALL ASSIGNED CONDITIONS

 *H              HO2             *H2             H2O2            *O             
 *OH             O3              H2O(cr)         H2O(L)         

 NOTE. WEIGHT FRACTION OF FUEL IN TOTAL FUELS AND OF OXIDANT IN TOTAL OXIDANTS






 O/F =   3.600000

                       EFFECTIVE FUEL     EFFECTIVE OXIDANT        MIXTURE
 ENTHALPY                  h(2)/R              h(1)/R               h0/R
 (KG-MOL)(K)/KG       -0.19083035E+04     -0.66401406E+03     -0.93451176E+03

 KG-FORM.WT./KG             bi(2)               bi(1)               b0i
  *H                   0.11101687E+00      0.58798142E-01      0.70150040E-01
  *O                   0.55508435E-01      0.58798142E-01      0.58082989E-01

 POINT ITN      T            H           O 
   1    3     741.312     -24.881     -13.448
 Pinf/Pt = 1.827212
   2    3     645.714     -27.842     -13.602
 Pinf/Pt = 1.834772
   2    2     645.095     -27.865     -13.603
 Pinf/Pt = 1.834820
   2    1     645.091     -27.865     -13.603
   3    1     645.091     -27.865     -13.603
   4    3     556.867     -31.506     -13.779
   4    2     549.144     -31.880     -13.797
   4    2     549.306     -31.872     -13.796
   5    3     515.745     -33.628     -13.877
   5    2     507.358     -34.103     -13.898
   5    2     507.466     -34.097     -13.898
   6    3     484.072     -35.509     -13.961
   6    2     476.886     -35.970     -13.981
   6    2     476.942     -35.966     -13.981
   7    3     458.133     -37.242     -14.037
   7    2     452.747     -37.627     -14.053
   7    1     452.771     -37.626     -14.053
   8    3     431.987     -39.201     -14.121
   8    2     432.805     -39.136     -14.118





              THEORETICAL ROCKET PERFORMANCE ASSUMING EQUILIBRIUM

           COMPOSITION DURING EXPANSION FROM INFINITE AREA COMBUSTOR

 Pin =    20.0 PSIA
 CASE =                

             REACTANT                    WT FRACTION      ENERGY      TEMP
                                          (SEE NOTE)     KJ/KG-MOL      K  
 FUEL        H2O(L)                       1.0000000   -285841.390    298.000
 OXIDANT     H2O2(L)                      1.0000000   -187793.400    298.000

 O/F=    3.60000  %FUEL= 21.739130  R,EQ.RATIO= 0.603878  PHI,EQ.RATIO= 0.000000

                 CHAMBER   THROAT     EXIT     EXIT     EXIT     EXIT     EXIT     EXIT
 Pinf/P            1.0000   1.8348   1.8348   3.6259   5.0371   6.4975   8.0296   9.6365
 P, BAR            1.3789  0.75154  0.75154  0.38031  0.27376  0.21223  0.17173  0.14310
 T, K              741.31   645.09   645.09   549.31   507.47   476.94   452.77   432.80
 RHO, KG/CU M    4.8031-1 3.0082-1 3.0082-1 1.7877-1 1.3929-1 1.1490-1 9.7937-2 8.5371-2
 H, KJ/KG        -7770.01 -7932.74 -7932.74 -8090.01 -8157.25 -8205.77 -8243.87 -8275.15
 U, KJ/KG        -8057.10 -8182.58 -8182.58 -8302.74 -8353.78 -8390.48 -8419.22 -8442.77
 G, KJ/KG        -15572.2 -14722.2 -14722.2 -13871.3 -13498.2 -13225.5 -13009.2 -12830.3
 S, KJ/(KG)(K)    10.5248  10.5248  10.5248  10.5248  10.5248  10.5248  10.5248  10.5248

 M, (1/n)          21.469   21.469   21.469   21.469   21.469   21.469   21.469   21.469
 (dLV/dLP)t      -1.00000 -1.00000 -1.00000 -1.00000 -1.00000 -1.00000 -1.00000 -1.00000
 (dLV/dLT)p        1.0000   1.0000   1.0000   1.0000   1.0000   1.0000   1.0000   1.0000
 Cp, KJ/(KG)(K)    1.7162   1.6664   1.6664   1.6175   1.5968   1.5822   1.5710   1.5621
 GAMMAs            1.2914   1.3028   1.3028   1.3148   1.3202   1.3241   1.3272   1.3297
 SON VEL,M/SEC      608.9    570.5    570.5    528.9    509.4    494.5    482.4    472.1
 MACH NUMBER        0.000    1.000    1.000    1.513    1.728    1.888    2.018    2.129

 TRANSPORT PROPERTIES (GASES ONLY)
   CONDUCTIVITY IN UNITS OF MILLIWATTS/(CM)(K)

 VISC,MILLIPOISE  0.32722  0.28870  0.28870  0.24899  0.23128  0.21826  0.20791  0.19936

  WITH EQUILIBRIUM REACTIONS

 Cp, KJ/(KG)(K)    1.7162   1.6664   1.6664   1.6175   1.5968   1.5822   1.5710   1.5621
 CONDUCTIVITY      0.6312   0.5313   0.5313   0.4374   0.3985   0.3712   0.3502   0.3334
 PRANDTL NUMBER    0.8897   0.9054   0.9054   0.9208   0.9267   0.9304   0.9327   0.9340

  WITH FROZEN REACTIONS

 Cp, KJ/(KG)(K)    1.7162   1.6664   1.6664   1.6175   1.5968   1.5822   1.5710   1.5621
 CONDUCTIVITY      0.6312   0.5313   0.5313   0.4374   0.3985   0.3712   0.3502   0.3334
 PRANDTL NUMBER    0.8897   0.9054   0.9054   0.9208   0.9267   0.9304   0.9327   0.9340

 PERFORMANCE PARAMETERS

 Ae/At                      1.0000   1.0000   1.2000   1.4000   1.6000   1.8000   2.0000
 CSTAR, M/SEC                803.5    803.5    803.5    803.5    803.5    803.5    803.5
 CF                         0.7100   0.7100   0.9957   1.0953   1.1619   1.2116   1.2509
 Ivac, M/SEC                1008.4   1008.4   1065.9   1103.4   1131.4   1153.6   1171.9
 Isp, M/SEC                  570.5    570.5    800.0    880.0    933.6    973.5   1005.1


 MOLE FRACTIONS

 H2O              0.75302  0.75302  0.75302  0.75302  0.75302  0.75302  0.75302  0.75302
 *O2              0.24698  0.24698  0.24698  0.24698  0.24698  0.24698  0.24698  0.24698

  * THERMODYNAMIC PROPERTIES FITTED TO 20000.K

    PRODUCTS WHICH WERE CONSIDERED BUT WHOSE MOLE FRACTIONS
    WERE LESS THAN 5.000000E-06 FOR ALL ASSIGNED CONDITIONS

 *H              HO2             *H2             H2O2            *O             
 *OH             O3              H2O(cr)         H2O(L)         

 NOTE. WEIGHT FRACTION OF FUEL IN TOTAL FUELS AND OF OXIDANT IN TOTAL OXIDANTS





           THEORETICAL ROCKET PERFORMANCE ASSUMING FROZEN COMPOSITION

 Pin =    20.0 PSIA
 CASE =                

             REACTANT                    WT FRACTION      ENERGY      TEMP
                                          (SEE NOTE)     KJ/KG-MOL      K  
 FUEL        H2O(L)                       1.0000000   -285841.390    298.000
 OXIDANT     H2O2(L)                      1.0000000   -187793.400    298.000

 O/F=    3.60000  %FUEL= 21.739130  R,EQ.RATIO= 0.603878  PHI,EQ.RATIO= 0.000000

                 CHAMBER   THROAT     EXIT     EXIT     EXIT     EXIT     EXIT     EXIT
 Pinf/P            1.0000   1.8348   1.8348   3.6259   5.0371   6.4975   8.0296   9.6365
 P, BAR            1.3789  0.75154  0.75154  0.38031  0.27376  0.21223  0.17173  0.14310
 T, K              741.31   645.09   645.09   549.31   507.47   476.94   452.77   432.80
 RHO, KG/CU M    4.8031-1 3.0082-1 3.0082-1 1.7877-1 1.3929-1 1.1490-1 9.7937-2 8.5371-2
 H, KJ/KG        -7770.01 -7932.74 -7932.74 -8090.01 -8157.25 -8205.77 -8243.87 -8275.15
 U, KJ/KG        -8057.10 -8182.58 -8182.58 -8302.74 -8353.78 -8390.48 -8419.22 -8442.77
 G, KJ/KG        -15572.2 -14722.2 -14722.2 -13871.3 -13498.2 -13225.5 -13009.2 -12830.3
 S, KJ/(KG)(K)    10.5248  10.5248  10.5248  10.5248  10.5248  10.5248  10.5248  10.5248

 M, (1/n)          21.469   21.469   21.469   21.469   21.469   21.469   21.469   21.469
 Cp, KJ/(KG)(K)    1.7162   1.6664   1.6664   1.6175   1.5968   1.5822   1.5710   1.5621
 GAMMAs            1.2914   1.3028   1.3028   1.3148   1.3202   1.3241   1.3272   1.3297
 SON VEL,M/SEC      608.9    570.5    570.5    528.9    509.4    494.5    482.4    472.1
 MACH NUMBER        0.000    1.000    1.000    1.513    1.728    1.888    2.018    2.129

 TRANSPORT PROPERTIES (GASES ONLY)
   CONDUCTIVITY IN UNITS OF MILLIWATTS/(CM)(K)

 VISC,MILLIPOISE  0.32722  0.28870  0.28870  0.24899  0.23128  0.21826  0.20791  0.19936

  WITH FROZEN REACTIONS

 Cp, KJ/(KG)(K)    1.7162   1.6664   1.6664   1.6175   1.5968   1.5822   1.5710   1.5621
 CONDUCTIVITY      0.6312   0.5313   0.5313   0.4374   0.3985   0.3712   0.3502   0.3334
 PRANDTL NUMBER    0.8897   0.9054   0.9054   0.9208   0.9267   0.9304   0.9327   0.9340

 PERFORMANCE PARAMETERS

 Ae/At                      1.0000   1.0000   1.2000   1.4000   1.6000   1.8000   2.0000
 CSTAR, M/SEC                803.5    803.5    803.5    803.5    803.5    803.5    803.5
 CF                         0.7100   0.7100   0.9957   1.0953   1.1619   1.2116   1.2509
 Ivac, M/SEC                1008.4   1008.4   1065.9   1103.4   1131.4   1153.6   1171.9
 Isp, M/SEC                  570.5    570.5    800.0    880.0    933.6    973.5   1005.1

 MOLE FRACTIONS

 H2O             0.75302   *O2             0.24698

  * THERMODYNAMIC PROPERTIES FITTED TO 20000.K

    PRODUCTS WHICH WERE CONSIDERED BUT WHOSE MOLE FRACTIONS
    WERE LESS THAN 5.000000E-06 FOR ALL ASSIGNED CONDITIONS

 *H              HO2             *H2             H2O2            *O             
 *OH             O3              H2O(cr)         H2O(L)         

 NOTE. WEIGHT FRACTION OF FUEL IN TOTAL FUELS AND OF OXIDANT IN TOTAL OXIDANTS






 POINT ITN      T            H           O 
   1    1     741.312     -24.779     -13.245
 Pinf/Pt = 1.827212
   2    3     645.714     -27.741     -13.399
 Pinf/Pt = 1.834772
   2    2     645.095     -27.763     -13.401
 Pinf/Pt = 1.834820
   2    1     645.091     -27.763     -13.401
   3    1     645.091     -27.763     -13.401
   4    3     556.867     -31.404     -13.577
   4    2     549.144     -31.779     -13.594
   4    2     549.306     -31.771     -13.594
   5    3     515.745     -33.527     -13.674
   5    2     507.358     -34.002     -13.695
   5    2     507.466     -33.996     -13.695
   6    3     484.072     -35.407     -13.758
   6    2     476.886     -35.869     -13.778
   6    2     476.942     -35.865     -13.778
   7    3     458.133     -37.141     -13.834
   7    2     452.747     -37.526     -13.851
   7    1     452.771     -37.524     -13.850
   8    3     431.987     -39.099     -13.918
   8    2     432.805     -39.035     -13.915





              THEORETICAL ROCKET PERFORMANCE ASSUMING EQUILIBRIUM

           COMPOSITION DURING EXPANSION FROM INFINITE AREA COMBUSTOR

 Pin =    30.0 PSIA
 CASE =                

             REACTANT                    WT FRACTION      ENERGY      TEMP
                                          (SEE NOTE)     KJ/KG-MOL      K  
 FUEL        H2O(L)                       1.0000000   -285841.390    298.000
 OXIDANT     H2O2(L)                      1.0000000   -187793.400    298.000

 O/F=    3.60000  %FUEL= 21.739130  R,EQ.RATIO= 0.603878  PHI,EQ.RATIO= 0.000000

                 CHAMBER   THROAT     EXIT     EXIT     EXIT     EXIT     EXIT     EXIT
 Pinf/P            1.0000   1.8348   1.8348   3.6259   5.0371   6.4975   8.0296   9.6365
 P, BAR            2.0684   1.1273   1.1273  0.57046  0.41063  0.31834  0.25760  0.21464
 T, K              741.31   645.09   645.09   549.31   507.47   476.94   452.77   432.80
 RHO, KG/CU M    7.2046-1 4.5123-1 4.5123-1 2.6815-1 2.0894-1 1.7234-1 1.4691-1 1.2806-1
 H, KJ/KG        -7770.01 -7932.74 -7932.74 -8090.01 -8157.25 -8205.77 -8243.87 -8275.15
 U, KJ/KG        -8057.10 -8182.58 -8182.58 -8302.74 -8353.78 -8390.48 -8419.22 -8442.77
 G, KJ/KG        -15455.8 -14620.9 -14620.9 -13785.1 -13418.5 -13150.6 -12938.1 -12762.4
 S, KJ/(KG)(K)    10.3678  10.3678  10.3678  10.3678  10.3678  10.3678  10.3678  10.3678

 M, (1/n)          21.469   21.469   21.469   21.469   21.469   21.469   21.469   21.469
 (dLV/dLP)t      -1.00000 -1.00000 -1.00000 -1.00000 -1.00000 -1.00000 -1.00000 -1.00000
 (dLV/dLT)p        1.0000   1.0000   1.0000   1.0000   1.0000   1.0000   1.0000   1.0000
 Cp, KJ/(KG)(K)    1.7162   1.6664   1.6664   1.6175   1.5968   1.5822   1.5710   1.5621
[...]

  * THERMODYNAMIC PROPERTIES FITTED TO 20000.K

    PRODUCTS WHICH WERE CONSIDERED BUT WHOSE MOLE FRACTIONS
    WERE LESS THAN 5.000000E-06 FOR ALL ASSIGNED CONDITIONS

 *H              HO2             *H2             H2O2            *O             
 *OH             O3              H2O(cr)         H2O(L)         

 NOTE. WEIGHT FRACTION OF FUEL IN TOTAL FUELS AND OF OXIDANT IN TOTAL OXIDANTS





           THEORETICAL ROCKET PERFORMANCE ASSUMING FROZEN COMPOSITION

 Pin =    30.0 PSIA
 CASE =                

             REACTANT                    WT FRACTION      ENERGY      TEMP
                                          (SEE NOTE)     KJ/KG-MOL      K  
 FUEL        H2O(L)                       1.0000000   -285841.390    298.000
 OXIDANT     H2O2(L)                      1.0000000   -187793.400    298.000

 O/F=    4.20000  %FUEL= 19.230769  R,EQ.RATIO= 0.591761  PHI,EQ.RATIO= 0.000000

                 CHAMBER   THROAT     EXIT     EXIT     EXIT     EXIT     EXIT     EXIT
 Pinf/P            1.0000   1.8311   1.8311   3.6106   5.0111   6.4595   7.9784   9.5710
 P, BAR            2.0684   1.1296   1.1296  0.57287  0.41277  0.32021  0.25925  0.21611
 T, K              803.15   700.83   700.83   598.51   553.64   520.83   494.80   473.26
 RHO, KG/CU M    6.6910-1 4.1877-1 4.1877-1 2.4868-1 1.9370-1 1.5973-1 1.3613-1 1.1864-1
 H, KJ/KG        -7510.50 -7685.37 -7685.37 -7854.88 -7927.53 -7980.02 -8021.29 -8055.19
 U, KJ/KG        -7819.64 -7955.13 -7955.13 -8085.25 -8140.63 -8180.49 -8211.74 -8237.35
 G, KJ/KG        -15904.5 -15010.0 -15010.0 -14110.1 -13713.8 -13423.4 -13192.6 -13001.4
 S, KJ/(KG)(K)    10.4513  10.4513  10.4513  10.4513  10.4513  10.4513  10.4513  10.4513

 M, (1/n)          21.602   21.602   21.602   21.602   21.602   21.602   21.602   21.602
 Cp, KJ/(KG)(K)    1.7353   1.6828   1.6828   1.6305   1.6079   1.5917   1.5791   1.5689
 GAMMAs            1.2850   1.2966   1.2966   1.3090   1.3147   1.3189   1.3223   1.3251
 SON VEL,M/SEC      630.3    591.4    591.4    549.1    529.3    514.2    501.8    491.3
 MACH NUMBER        0.000    1.000    1.000    1.511    1.725    1.885    2.014    2.124

 TRANSPORT PROPERTIES (GASES ONLY)
   CONDUCTIVITY IN UNITS OF MILLIWATTS/(CM)(K)

 VISC,MILLIPOISE  0.35290  0.31296  0.31296  0.27136  0.25263  0.23877  0.22770  0.21849

  WITH FROZEN REACTIONS

 Cp, KJ/(KG)(K)    1.7353   1.6828   1.6828   1.6305   1.6079   1.5917   1.5791   1.5689
 CONDUCTIVITY      0.6971   0.5887   0.5887   0.4856   0.4424   0.4118   0.3881   0.3691
 PRANDTL NUMBER    0.8785   0.8945   0.8945   0.9112   0.9182   0.9230   0.9263   0.9288

 PERFORMANCE PARAMETERS

 Ae/At                      1.0000   1.0000   1.2000   1.4000   1.6000   1.8000   2.0000
 CSTAR, M/SEC                835.2    835.2    835.2    835.2    835.2    835.2    835.2
 CF                         0.7081   0.7081   0.9937   1.0935   1.1602   1.2102   1.2497
 Ivac, M/SEC                1047.5   1047.5   1107.5   1146.6   1175.9   1199.2   1218.3
 Isp, M/SEC                  591.4    591.4    829.9    913.3    969.0   1010.7   1043.7

 MOLE FRACTIONS

 H2O             0.74353   *O2             0.25647

  * THERMODYNAMIC PROPERTIES FITTED TO 20000.K

    PRODUCTS WHICH WERE CONSIDERED BUT WHOSE MOLE FRACTIONS
    WERE LESS THAN 5.000000E-06 FOR ALL ASSIGNED CONDITIONS

 *H              HO2             *H2             H2O2            *O             
 *OH             O3              H2O(cr)         H2O(L)         

 NOTE. WEIGHT FRACTION OF FUEL IN TOTAL FUELS AND OF OXIDANT IN TOTAL OXIDANTS






 POINT ITN      T            H           O 
   1    1     803.153     -23.272     -13.175
 Pinf/Pt = 1.823330
   2    3     701.510     -25.948     -13.322
 Pinf/Pt = 1.831010
   2    2     700.836     -25.968     -13.323
 Pinf/Pt = 1.831060
   2    1     700.832     -25.968     -13.323
   3    1     700.832     -25.968     -13.323
   4    3     606.324     -29.266     -13.489
   4    2     598.352     -29.592     -13.505
   4    2     598.512     -29.585     -13.504
   5    3     562.137     -31.188     -13.580
   5    2     553.539     -31.597     -13.600
   5    2     553.644     -31.592     -13.599
   6    3     528.038     -32.890     -13.659
   6    2     520.781     -33.282     -13.677
   6    2     520.834     -33.279     -13.677
   7    3     500.066     -34.461     -13.730
   7    2     494.780     -34.777     -13.744
   7    1     494.802     -34.776     -13.744
   8    3     472.309     -36.203     -13.807
   8    2     473.263     -36.139     -13.804





              THEORETICAL ROCKET PERFORMANCE ASSUMING EQUILIBRIUM

           COMPOSITION DURING EXPANSION FROM INFINITE AREA COMBUSTOR

 Pin =    40.0 PSIA
 CASE =                

             REACTANT                    WT FRACTION      ENERGY      TEMP
                                          (SEE NOTE)     KJ/KG-MOL      K  
 FUEL        H2O(L)                       1.0000000   -285841.390    298.000
 OXIDANT     H2O2(L)                      1.0000000   -187793.400    298.000

 O/F=    4.20000  %FUEL= 19.230769  R,EQ.RATIO= 0.591761  PHI,EQ.RATIO= 0.000000

                 CHAMBER   THROAT     EXIT     EXIT     EXIT     EXIT     EXIT     EXIT
 Pinf/P            1.0000   1.8311   1.8311   3.6106   5.0111   6.4595   7.9784   9.5710
 P, BAR            2.7579   1.5062   1.5062  0.76383  0.55035  0.42695  0.34567  0.28815
 T, K              803.15   700.83   700.83   598.51   553.64   520.83   494.80   473.26
 RHO, KG/CU M    8.9213-1 5.5836-1 5.5836-1 3.3157-1 2.5826-1 2.1297-1 1.8150-1 1.5819-1
 H, KJ/KG        -7510.50 -7685.37 -7685.37 -7854.88 -7927.53 -7980.02 -8021.29 -8055.19
 U, KJ/KG        -7819.64 -7955.13 -7955.13 -8085.25 -8140.63 -8180.49 -8211.74 -8237.35
 G, KJ/KG        -15815.5 -14932.4 -14932.4 -14043.8 -13652.5 -13365.7 -13137.8 -12949.0
 S, KJ/(KG)(K)    10.3405  10.3405  10.3405  10.3405  10.3405  10.3405  10.3405  10.3405

 M, (1/n)          21.602   21.602   21.602   21.602   21.602   21.602   21.602   21.602
 (dLV/dLP)t      -1.00000 -1.00000 -1.00000 -1.00000 -1.00000 -1.00000 -1.00000 -1.00000
 (dLV/dLT)p        1.0000   1.0000   1.0000   1.0000   1.0000   1.0000   1.0000   1.0000
 Cp, KJ/(KG)(K)    1.7353   1.6828   1.6828   1.6305   1.6079   1.5917   1.5791   1.5689
 GAMMAs            1.2850   1.2966   1.2966   1.3090   1.3147   1.3189   1.3223   1.3251
 SON VEL,M/SEC      630.3    591.4    591.4    549.1    529.3    514.2    501.8    491.3
 MACH NUMBER        0.000    1.000    1.000    1.511    1.725    1.885    2.014    2.124

 TRANSPORT PROPERTIES (GASES ONLY)
   CONDUCTIVITY IN UNITS OF MILLIWATTS/(CM)(K)

 VISC,MILLIPOISE  0.35290  0.31296  0.31296  0.27136  0.25263  0.23877  0.22770  0.21849

  WITH EQUILIBRIUM REACTIONS

 Cp, KJ/(KG)(K)    1.7353   1.6828   1.6828   1.6305   1.6079   1.5917   1.5791   1.5689
 CONDUCTIVITY      0.6971   0.5887   0.5887   0.4856   0.4424   0.4118   0.3881   0.3691
 PRANDTL NUMBER    0.8785   0.8945   0.8945   0.9112   0.9182   0.9230   0.9263   0.9288

  WITH FROZEN REACTIONS

 Cp, KJ/(KG)(K)    1.7353   1.6828   1.6828   1.6305   1.6079   1.5917   1.5791   1.5689
 CONDUCTIVITY      0.6971   0.5887   0.5887   0.4856   0.4424   0.4118   0.3881   0.3691
 PRANDTL NUMBER    0.8785   0.8945   0.8945   0.9112   0.9182   0.9230   0.9263   0.9288

 PERFORMANCE PARAMETERS

 Ae/At                      1.0000   1.0000   1.2000   1.4000   1.6000   1.8000   2.0000
 CSTAR, M/SEC                835.2    835.2    835.2    835.2    835.2    835.2    835.2
 CF                         0.7081   0.7081   0.9937   1.0935   1.1602   1.2102   1.2497
 Ivac, M/SEC                1047.5   1047.5   1107.5   1146.6   1175.9   1199.2   1218.3
 Isp, M/SEC                  591.4    591.4    829.9    913.3    969.0   1010.7   1043.7


 MOLE FRACTIONS

 H2O              0.74353  0.74353  0.74353  0.74353  0.74353  0.74353  0.74353  0.74353
 *O2              0.25647  0.25647  0.25647  0.25647  0.25647  0.25647  0.25647  0.25647

  * THERMODYNAMIC PROPERTIES FITTED TO 20000.K

    PRODUCTS WHICH WERE CONSIDERED BUT WHOSE MOLE FRACTIONS
    WERE LESS THAN 5.000000E-06 FOR ALL ASSIGNED CONDITIONS

 *H              HO2             *H2             H2O2            *O             
 *OH             O3              H2O(cr)         H2O(L)         

 NOTE. WEIGHT FRACTION OF FUEL IN TOTAL FUELS AND OF OXIDANT IN TOTAL OXIDANTS





           THEORETICAL ROCKET PERFORMANCE ASSUMING FROZEN COMPOSITION

 Pin =    40.0 PSIA
 CASE =                

             REACTANT                    WT FRACTION      ENERGY      TEMP
                                          (SEE NOTE)     KJ/KG-MOL      K  
 FUEL        H2O(L)                       1.0000000   -285841.390    298.000
 OXIDANT     H2O2(L)                      1.0000000   -187793.400    298.000

 O/F=    4.20000  %FUEL= 19.230769  R,EQ.RATIO= 0.591761  PHI,EQ.RATIO= 0.000000

                 CHAMBER   THROAT     EXIT     EXIT     EXIT     EXIT     EXIT     EXIT
 Pinf/P            1.0000   1.8311   1.8311   3.6106   5.0111   6.4595   7.9784   9.5710
 P, BAR            2.7579   1.5062   1.5062  0.76383  0.55035  0.42695  0.34567  0.28815
 T, K              803.15   700.83   700.83   598.51   553.64   520.83   494.80   473.26
 RHO, KG/CU M    8.9213-1 5.5836-1 5.5836-1 3.3157-1 2.5826-1 2.1297-1 1.8150-1 1.5819-1
 H, KJ/KG        -7510.50 -7685.37 -7685.37 -7854.88 -7927.53 -7980.02 -8021.29 -8055.19
 U, KJ/KG        -7819.64 -7955.13 -7955.13 -8085.25 -8140.63 -8180.49 -8211.74 -8237.35
 G, KJ/KG        -15815.5 -14932.4 -14932.4 -14043.8 -13652.5 -13365.7 -13137.8 -12949.0
 S, KJ/(KG)(K)    10.3405  10.3405  10.3405  10.3405  10.3405  10.3405  10.3405  10.3405

 M, (1/n)          21.602   21.602   21.602   21.602   21.602   21.602   21.602   21.602
 Cp, KJ/(KG)(K)    1.7353   1.6828   1.6828   1.6305   1.6079   1.5917   1.5791   1.5689
 GAMMAs            1.2850   1.2966   1.2966   1.3090   1.3147   1.3189   1.3223   1.3251
 SON VEL,M/SEC      630.3    591.4    591.4    549.1    529.3    514.2    501.8    491.3
 MACH NUMBER        0.000    1.000    1.000    1.511    1.725    1.885    2.014    2.124

 TRANSPORT PROPERTIES (GASES ONLY)
   CONDUCTIVITY IN UNITS OF MILLIWATTS/(CM)(K)

 VISC,MILLIPOISE  0.35290  0.31296  0.31296  0.27136  0.25263  0.23877  0.22770  0.21849

  WITH FROZEN REACTIONS

 Cp, KJ/(KG)(K)    1.7353   1.6828   1.6828   1.6305   1.6079   1.5917   1.5791   1.5689
 CONDUCTIVITY      0.6971   0.5887   0.5887   0.4856   0.4424   0.4118   0.3881   0.3691
 PRANDTL NUMBER    0.8785   0.8945   0.8945   0.9112   0.9182   0.9230   0.9263   0.9288

 PERFORMANCE PARAMETERS

 Ae/At                      1.0000   1.0000   1.2000   1.4000   1.6000   1.8000   2.0000
 CSTAR, M/SEC                835.2    835.2    835.2    835.2    835.2    835.2    835.2
 CF                         0.7081   0.7081   0.9937   1.0935   1.1602   1.2102   1.2497
 Ivac, M/SEC                1047.5   1047.5   1107.5   1146.6   1175.9   1199.2   1218.3
 Isp, M/SEC                  591.4    591.4    829.9    913.3    969.0   1010.7   1043.7

 MOLE FRACTIONS

 H2O             0.74353   *O2             0.25647

  * THERMODYNAMIC PROPERTIES FITTED TO 20000.K

    PRODUCTS WHICH WERE CONSIDERED BUT WHOSE MOLE FRACTIONS
    WERE LESS THAN 5.000000E-06 FOR ALL ASSIGNED CONDITIONS

 *H              HO2             *H2             H2O2            *O             
 *OH             O3              H2O(cr)         H2O(L)         

 NOTE. WEIGHT FRACTION OF FUEL IN TOTAL FUELS AND OF OXIDANT IN TOTAL OXIDANTS






 POINT ITN      T            H           O 
   1    1     803.153     -23.216     -13.063
 Pinf/Pt = 1.823330
   2    3     701.510     -25.892     -13.210
 Pinf/Pt = 1.831010
   2    2     700.836     -25.912     -13.211
 Pinf/Pt = 1.831060
   2    1     700.832     -25.912     -13.211
   3    1     700.832     -25.912     -13.211
   4    3     606.324     -29.210     -13.377
   4    2     598.352     -29.536     -13.393
   4    2     598.512     -29.529     -13.393
   5    3     562.137     -31.132     -13.469
   5    2     553.539     -31.541     -13.488
   5    2     553.644     -31.536     -13.488
   6    3     528.038     -32.835     -13.547
   6    2     520.781     -33.226     -13.565
   6    2     520.834     -33.223     -13.565
   7    3     500.066     -34.405     -13.618
   7    2     494.780     -34.722     -13.632
   7    1     494.802     -34.720     -13.632
   8    3     472.309     -36.147     -13.695
   8    2     473.263     -36.084     -13.692





              THEORETICAL ROCKET PERFORMANCE ASSUMING EQUILIBRIUM

           COMPOSITION DURING EXPANSION FROM INFINITE AREA COMBUSTOR

 Pin =    50.0 PSIA
 CASE =                

             REACTANT                    WT FRACTION      ENERGY      TEMP
                                          (SEE NOTE)     KJ/KG-MOL      K  
 FUEL        H2O(L)                       1.0000000   -285841.390    298.000
 OXIDANT     H2O2(L)                      1.0000000   -187793.400    298.000

 O/F=    4.20000  %FUEL= 19.230769  R,EQ.RATIO= 0.591761  PHI,EQ.RATIO= 0.000000

                 CHAMBER   THROAT     EXIT     EXIT     EXIT     EXIT     EXIT     EXIT
 Pinf/P            1.0000   1.8311   1.8311   3.6106   5.0111   6.4595   7.9784   9.5710
 P, BAR            3.4474   1.8827   1.8827  0.95479  0.68794  0.53369  0.43209  0.36019
 T, K              803.15   700.83   700.83   598.51   553.64   520.83   494.80   473.26
 RHO, KG/CU M    1.1152 0 6.9794-1 6.9794-1 4.1446-1 3.2283-1 2.6622-1 2.2688-1 1.9773-1
 H, KJ/KG        -7510.50 -7685.37 -7685.37 -7854.88 -7927.53 -7980.02 -8021.29 -8055.19
 U, KJ/KG        -7819.64 -7955.13 -7955.13 -8085.25 -8140.63 -8180.49 -8211.74 -8237.35
 G, KJ/KG        -15746.6 -14872.2 -14872.2 -13992.4 -13605.0 -13321.0 -13095.3 -12908.3
 S, KJ/(KG)(K)    10.2547  10.2547  10.2547  10.2547  10.2547  10.2547  10.2547  10.2547

 M, (1/n)          21.602   21.602   21.602   21.602   21.602   21.602   21.602   21.602
 (dLV/dLP)t      -1.00000 -1.00000 -1.00000 -1.00000 -1.00000 -1.00000 -1.00000 -1.00000
 (dLV/dLT)p        1.0000   1.0000   1.0000   1.0000   1.0000   1.0000   1.0000   1.0000
 Cp, KJ/(KG)(K)    1.7353   1.6828   1.6828   1.6305   1.6079   1.5917   1.5791   1.5689
 GAMMAs            1.2850   1.2966   1.2966   1.3090   1.3147   1.3189   1.3223   1.3251
 SON VEL,M/SEC      630.3    591.4    591.4    549.1    529.3    514.2    501.8    491.3
 MACH NUMBER        0.000    1.000    1.000    1.511    1.725    1.885    2.014    2.124

 TRANSPORT PROPERTIES (GASES ONLY)
   CONDUCTIVITY IN UNITS OF MILLIWATTS/(CM)(K)

 VISC,MILLIPOISE  0.35290  0.31296  0.31296  0.27136  0.25263  0.23877  0.22770  0.21849

  WITH EQUILIBRIUM REACTIONS

 Cp, KJ/(KG)(K)    1.7353   1.6828   1.6828   1.6305   1.6079   1.5917   1.5791   1.5689
 CONDUCTIVITY      0.6971   0.5887   0.5887   0.4856   0.4424   0.4118   0.3881   0.3691
 PRANDTL NUMBER    0.8785   0.8945   0.8945   0.9112   0.9182   0.9230   0.9263   0.9288

  WITH FROZEN REACTIONS

 Cp, KJ/(KG)(K)    1.7353   1.6828   1.6828   1.6305   1.6079   1.5917   1.5791   1.5689
 CONDUCTIVITY      0.6971   0.5887   0.5887   0.4856   0.4424   0.4118   0.3881   0.3691
 PRANDTL NUMBER    0.8785   0.8945   0.8945   0.9112   0.9182   0.9230   0.9263   0.9288

 PERFORMANCE PARAMETERS

 Ae/At                      1.0000   1.0000   1.2000   1.4000   1.6000   1.8000   2.0000
 CSTAR, M/SEC                835.2    835.2    835.2    835.2    835.2    835.2    835.2
 CF                         0.7081   0.7081   0.9937   1.0935   1.1602   1.2102   1.2497
 Ivac, M/SEC                1047.5   1047.5   1107.5   1146.6   1175.9   1199.2   1218.3
 Isp, M/SEC                  591.4    591.4    829.9    913.3    969.0   1010.7   1043.7


 MOLE FRACTIONS

 H2O              0.74353  0.74353  0.74353  0.74353  0.74353  0.74353  0.74353  0.74353
 *O2              0.25647  0.25647  0.25647  0.25647  0.25647  0.25647  0.25647  0.25647

  * THERMODYNAMIC PROPERTIES FITTED TO 20000.K

    PRODUCTS WHICH WERE CONSIDERED BUT WHOSE MOLE FRACTIONS
    WERE LESS THAN 5.000000E-06 FOR ALL ASSIGNED CONDITIONS

 *H              HO2             *H2             H2O2            *O             
 *OH             O3              H2O(cr)         H2O(L)         

 NOTE. WEIGHT FRACTION OF FUEL IN TOTAL FUELS AND OF OXIDANT IN TOTAL OXIDANTS





           THEORETICAL ROCKET PERFORMANCE ASSUMING FROZEN COMPOSITION

 Pin =    50.0 PSIA
 CASE =                

             REACTANT                    WT FRACTION      ENERGY      TEMP
                                          (SEE NOTE)     KJ/KG-MOL      K  
 FUEL        H2O(L)                       1.0000000   -285841.390    298.000
 OXIDANT     H2O2(L)                      1.0000000   -187793.400    298.000

 O/F=    4.20000  %FUEL= 19.230769  R,EQ.RATIO= 0.591761  PHI,EQ.RATIO= 0.000000

                 CHAMBER   THROAT     EXIT     EXIT     EXIT     EXIT     EXIT     EXIT
 Pinf/P            1.0000   1.8311   1.8311   3.6106   5.0111   6.4595   7.9784   9.5710
 P, BAR            3.4474   1.8827   1.8827  0.95479  0.68794  0.53369  0.43209  0.36019
 T, K              803.15   700.83   700.83   598.51   553.64   520.83   494.80   473.26
 RHO, KG/CU M    1.1152 0 6.9794-1 6.9794-1 4.1446-1 3.2283-1 2.6622-1 2.2688-1 1.9773-1
 H, KJ/KG        -7510.50 -7685.37 -7685.37 -7854.88 -7927.53 -7980.02 -8021.29 -8055.19
 U, KJ/KG        -7819.64 -7955.13 -7955.13 -8085.25 -8140.63 -8180.49 -8211.74 -8237.35
 G, KJ/KG        -15746.6 -14872.2 -14872.2 -13992.4 -13605.0 -13321.0 -13095.3 -12908.3
 S, KJ/(KG)(K)    10.2547  10.2547  10.2547  10.2547  10.2547  10.2547  10.2547  10.2547

 M, (1/n)          21.602   21.602   21.602   21.602   21.602   21.602   21.602   21.602
 Cp, KJ/(KG)(K)    1.7353   1.6828   1.6828   1.6305   1.6079   1.5917   1.5791   1.5689
 GAMMAs            1.2850   1.2966   1.2966   1.3090   1.3147   1.3189   1.3223   1.3251
 SON VEL,M/SEC      630.3    591.4    591.4    549.1    529.3    514.2    501.8    491.3
 MACH NUMBER        0.000    1.000    1.000    1.511    1.725    1.885    2.014    2.124

 TRANSPORT PROPERTIES (GASES ONLY)
   CONDUCTIVITY IN UNITS OF MILLIWATTS/(CM)(K)

 VISC,MILLIPOISE  0.35290  0.31296  0.31296  0.27136  0.25263  0.23877  0.22770  0.21849

  WITH FROZEN REACTIONS

 Cp, KJ/(KG)(K)    1.7353   1.6828   1.6828   1.6305   1.6079   1.5917   1.5791   1.5689
 CONDUCTIVITY      0.6971   0.5887   0.5887   0.4856   0.4424   0.4118   0.3881   0.3691
 PRANDTL NUMBER    0.8785   0.8945   0.8945   0.9112   0.9182   0.9230   0.9263   0.9288

 PERFORMANCE PARAMETERS

 Ae/At                      1.0000   1.0000   1.2000   1.4000   1.6000   1.8000   2.0000
 CSTAR, M/SEC                835.2    835.2    835.2    835.2    835.2    835.2    835.2
 CF                         0.7081   0.7081   0.9937   1.0935   1.1602   1.2102   1.2497
 Ivac, M/SEC                1047.5   1047.5   1107.5   1146.6   1175.9   1199.2   1218.3
 Isp, M/SEC                  591.4    591.4    829.9    913.3    969.0   1010.7   1043.7

 MOLE FRACTIONS

 H2O             0.74353   *O2             0.25647

  * THERMODYNAMIC PROPERTIES FITTED TO 20000.K

    PRODUCTS WHICH WERE CONSIDERED BUT WHOSE MOLE FRACTIONS
    WERE LESS THAN 5.000000E-06 FOR ALL ASSIGNED CONDITIONS

 *H              HO2             *H2             H2O2            *O             
 *OH             O3              H2O(cr)         H2O(L)         

 NOTE. WEIGHT FRACTION OF FUEL IN TOTAL FUELS AND OF OXIDANT IN TOTAL OXIDANTS



