
 *******************************************************************************

         NASA-GLENN CHEMICAL EQUILIBRIUM PROGRAM CEA2, MAY 21, 2004
                   BY  BONNIE MCBRIDE AND SANFORD GORDON
      REFS: NASA RP-1311, PART I, 1994 AND NASA RP-1311, PART II, 1996

 *******************************************************************************



 problem rocket eq fr
     p(psi) = 20, 30, 40, 50
     o/f = 2, 2.2, 2.4, 2.6, 2.8, 3
     sup = 1, 1.2, 1.4, 1.6, 1.8, 2
 reac
     fuel = H2O(L) t(K) = 298.000
     ox = H2O2(L) t(K) = 298.000
 outp trans
 end

 OPTIONS: TP=F  HP=F  SP=F  TV=F  UV=F  SV=F  DETN=F  SHOCK=F  REFL=F  INCD=F
 RKT=T  FROZ=T  EQL=T  IONS=F  SIUNIT=T  DEBUGF=F  SHKDBG=F  DETDBG=F  TRNSPT=T

 TRACE= 0.00E+00  S/R= 0.000000E+00  H/R= 0.000000E+00  U/R= 0.000000E+00

 Pc,BAR =     1.378946     2.068419     2.757892     3.447365

 Pc/P =

 SUBSONIC AREA RATIOS =

 SUPERSONIC AREA RATIOS =     1.0000     1.2000     1.4000     1.6000     1.8000
     2.0000

 NFZ=  1  Mdot/Ac= 0.000000E+00  Ac/At= 0.000000E+00

 WARNING!!  AMOUNT MISSING FOR REACTANT  1.
 PROGRAM SETS WEIGHT PERCENT = 100. (REACT)

 WARNING!!  AMOUNT MISSING FOR REACTANT  2.
 PROGRAM SETS WEIGHT PERCENT = 100. (REACT)

    REACTANT          WT.FRAC   (ENERGY/R),K   TEMP,K  DENSITY
        EXPLODED FORMULA
 F: H2O(L)           1.000000  -0.343786E+05   298.00  0.0000
          H  2.00000  O  1.00000
 O: H2O2(L)          1.000000  -0.225862E+05   298.00  0.0000
          H  2.00000  O  2.00000

  SPECIES BEING CONSIDERED IN THIS SYSTEM
 (CONDENSED PHASE MAY HAVE NAME LISTED SEVERAL TIMES)
  LAST thermo.inp UPDATE:    9/09/04

  g 6/97  *H               g 4/02  HO2              tpis78  *H2            
  g 8/89  H2O              g 6/99  H2O2             g 5/97  *O             
  g 4/02  *OH              tpis89  *O2              g 8/01  O3             
  g11/99  H2O(cr)          g 8/01  H2O(L)           g 8/01  H2O(L)         

 SPECIES WITH TRANSPORT PROPERTIES

        PURE SPECIES

  H                 H2                H2O               O               
  OH                O2              

     BINARY INTERACTIONS

     H               H2              
     H               O               
     H2              H2O             
     H2              O2              
     H2O             O2              
     O               O2              


 O/F =   2.000000

                       EFFECTIVE FUEL     EFFECTIVE OXIDANT        MIXTURE
 ENTHALPY                  h(2)/R              h(1)/R               h0/R
 (KG-MOL)(K)/KG       -0.19083035E+04     -0.66401406E+03     -0.10787772E+04

 KG-FORM.WT./KG             bi(2)               bi(1)               b0i
  *H                   0.11101687E+00      0.58798142E-01      0.76204385E-01
  *O                   0.55508435E-01      0.58798142E-01      0.57701573E-01

 POINT ITN      T            H           O 
   1   11     451.752     -37.102     -13.104
 Pinf/Pt = 1.847614
   2    3     388.065     -42.488     -13.333
 Pinf/Pt = 1.852609
   2    2     387.803     -42.514     -13.334
   3    1     387.803     -42.514     -13.334
   4    3     331.533     -49.005     -13.599
 ADD  H2O(L)         
   4    2     343.639     -47.468     -13.602
   4    2     343.551     -47.480     -13.604
   5    3     336.293     -48.475     -13.749
   5    2     337.268     -48.339     -13.729
   5    2     337.275     -48.338     -13.729
   6    3     330.557     -49.293     -13.870
   6    3     332.464     -49.018     -13.829
   6    2     332.484     -49.015     -13.829
   7    3     325.794     -49.995     -13.975
   7    3     328.556     -49.586     -13.914
   7    2     328.590     -49.581     -13.913
   8    3     320.515     -50.798     -14.096
   8    3     325.227     -50.080     -13.988
   8    2     325.310     -50.068     -13.986





              THEORETICAL ROCKET PERFORMANCE ASSUMING EQUILIBRIUM

           COMPOSITION DURING EXPANSION FROM INFINITE AREA COMBUSTOR

 Pin =    20.0 PSIA
 CASE =                

             REACTANT                    WT FRACTION      ENERGY      TEMP
                                          (SEE NOTE)     KJ/KG-MOL      K  
 FUEL        H2O(L)                       1.0000000   -285841.390    298.000
 OXIDANT     H2O2(L)                      1.0000000   -187793.400    298.000

 O/F=    2.00000  %FUEL= 33.333333  R,EQ.RATIO= 0.660332  PHI,EQ.RATIO= 0.000000

                 CHAMBER   THROAT     EXIT     EXIT     EXIT     EXIT     EXIT     EXIT
 Pinf/P            1.0000   1.8526   1.8526   3.4706   4.5543   5.6498   6.7681   7.9111
 P, BAR            1.3789  0.74433  0.74433  0.39733  0.30278  0.24407  0.20374  0.17431
 T, K              451.75   387.80   387.80   343.55   337.27   332.48   328.59   325.31
 RHO, KG/CU M    7.6640-1 4.8191-1 4.8191-1 2.9326-1 2.3064-1 1.9053-1 1.6229-1 1.4124-1
 H, KJ/KG        -8969.50 -9072.41 -9072.41 -9162.48 -9198.73 -9226.68 -9249.58 -9269.00
 U, KJ/KG        -9149.43 -9226.87 -9226.87 -9297.97 -9330.00 -9354.78 -9375.12 -9392.41
 G, KJ/KG        -13459.9 -12927.2 -12927.2 -12577.4 -12551.2 -12531.5 -12515.7 -12502.6
 S, KJ/(KG)(K)     9.9399   9.9399   9.9399   9.9399   9.9399   9.9399   9.9399   9.9399

 M, (1/n)          20.876   20.876   20.876   21.083   21.362   21.580   21.762   21.917
 MW, MOL WT        20.876   20.876   20.876   20.876   20.876   20.876   20.876   20.876
 (dLV/dLP)t      -1.00000 -1.00000 -1.00000 -4.84008 -4.77696 -4.72860 -4.68917 -4.65587
 (dLV/dLT)p        1.0000   1.0000   1.0000  57.6150  58.0724  58.4222  58.7069  58.9470
 Cp, KJ/(KG)(K)    1.6235   1.5958   1.5958 330.7730 337.2915 342.3593 346.5388 350.1032
 GAMMAs            1.3251   1.3326   1.3326   1.1333   1.1296   1.1268   1.1245   1.1226
 SON VEL,M/SEC      488.3    453.7    453.7    391.8    385.1    379.9    375.7    372.2
 MACH NUMBER        0.000    1.000    1.000    1.585    1.758    1.888    1.992    2.079

 TRANSPORT PROPERTIES (GASES ONLY)
   CONDUCTIVITY IN UNITS OF MILLIWATTS/(CM)(K)

 VISC,MILLIPOISE  0.19923  0.17225  0.17225  0.15442  0.15238  0.15084  0.14960  0.14856

  WITH EQUILIBRIUM REACTIONS

 Cp, KJ/(KG)(K)    1.6235   1.5958   1.5958   1.5773   1.5720   1.5678   1.5645   1.5617
 CONDUCTIVITY      0.3438   0.2919   0.2919   0.2607   0.2570   0.2543   0.2521   0.2503
 PRANDTL NUMBER    0.9408   0.9418   0.9418   0.9342   0.9319   0.9300   0.9283   0.9268

  WITH FROZEN REACTIONS

 Cp, KJ/(KG)(K)    1.6235   1.5958   1.5958   1.5773   1.5720   1.5678   1.5645   1.5617
 CONDUCTIVITY      0.3438   0.2919   0.2919   0.2607   0.2570   0.2543   0.2521   0.2503
 PRANDTL NUMBER    0.9408   0.9418   0.9418   0.9342   0.9319   0.9300   0.9283   0.9268

 PERFORMANCE PARAMETERS

 Ae/At                      1.0000   1.0000   1.2000   1.4000   1.6000   1.8000   2.0000
 CSTAR, M/SEC                630.7    630.7    630.7    630.7    630.7    630.7    630.7
 CF                         0.7193   0.7193   0.9850   1.0735   1.1371   1.1866   1.2271
 Ivac, M/SEC                 794.1    794.1    839.3    871.0    895.8    916.2    933.4
 Isp, M/SEC                  453.7    453.7    621.3    677.1    717.2    748.4    774.0


 MOLE FRACTIONS

 H2O              0.79542  0.79542  0.79542  0.78560  0.77269  0.76279  0.75473  0.74791
 *O2              0.20458  0.20458  0.20458  0.20458  0.20458  0.20458  0.20458  0.20458
 H2O(L)           0.00000  0.00000  0.00000  0.00982  0.02274  0.03263  0.04070  0.04751

  * THERMODYNAMIC PROPERTIES FITTED TO 20000.K

    PRODUCTS WHICH WERE CONSIDERED BUT WHOSE MOLE FRACTIONS
    WERE LESS THAN 5.000000E-06 FOR ALL ASSIGNED CONDITIONS

 *H              HO2             *H2             H2O2            *O             
 *OH             O3              H2O(cr)        

 NOTE. WEIGHT FRACTION OF FUEL IN TOTAL FUELS AND OF OXIDANT IN TOTAL OXIDANTS





           THEORETICAL ROCKET PERFORMANCE ASSUMING FROZEN COMPOSITION

 Pin =    20.0 PSIA
 CASE =                

             REACTANT                    WT FRACTION      ENERGY      TEMP
                                          (SEE NOTE)     KJ/KG-MOL      K  
 FUEL        H2O(L)                       1.0000000   -285841.390    298.000
 OXIDANT     H2O2(L)                      1.0000000   -187793.400    298.000

 O/F=    2.00000  %FUEL= 33.333333  R,EQ.RATIO= 0.660332  PHI,EQ.RATIO= 0.000000

                 CHAMBER   THROAT     EXIT     EXIT     EXIT     EXIT     EXIT     EXIT
 Pinf/P            1.0000   1.8526   1.8526   3.6930   5.1467   6.6519   8.2309   9.8867
 P, BAR            1.3789  0.74433  0.74433  0.37339  0.26793  0.20730  0.16753  0.13948
 T, K              451.75   387.80   387.80   326.06   299.75   280.81   265.98   253.83
 RHO, KG/CU M    7.6640-1 4.8191-1 4.8191-1 2.8753-1 2.2443-1 1.8535-1 1.5815-1 1.3796-1
 H, KJ/KG        -8969.50 -9072.41 -9072.41 -9170.26 -9211.60 -9241.25 -9264.43 -9283.40
 U, KJ/KG        -9149.43 -9226.87 -9226.87 -9300.12 -9330.98 -9353.09 -9370.37 -9384.50
 G, KJ/KG        -13459.9 -12927.2 -12927.2 -12411.3 -12191.1 -12032.5 -11908.3 -11806.5
 S, KJ/(KG)(K)     9.9399   9.9399   9.9399   9.9399   9.9399   9.9399   9.9399   9.9399

 M, (1/n)          20.876   20.876   20.876   20.876   20.876   20.876   20.876   20.876
 MW, MOL WT        20.876   20.876   20.876   20.876   20.876   20.876   20.876   20.876
 Cp, KJ/(KG)(K)    1.6235   1.5958   1.5958   1.5746   1.5680   1.5643   1.5621   1.5606
 GAMMAs            1.3251   1.3326   1.3326   1.3386   1.3405   1.3416   1.3422   1.3427
 SON VEL,M/SEC      488.3    453.7    453.7    416.9    400.0    387.4    377.1    368.4
 MACH NUMBER        0.000    1.000    1.000    1.520    1.739    1.903    2.037    2.151

 TRANSPORT PROPERTIES (GASES ONLY)
   CONDUCTIVITY IN UNITS OF MILLIWATTS/(CM)(K)

 VISC,MILLIPOISE  0.19923  0.17225  0.17225  0.14708  0.13696  0.13005  0.12495  0.12104

  WITH FROZEN REACTIONS

 Cp, KJ/(KG)(K)    1.6235   1.5958   1.5958   1.5746   1.5680   1.5643   1.5621   1.5606
 CONDUCTIVITY      0.3438   0.2919   0.2919   0.2495   0.2349   0.2265   0.2214   0.2185
 PRANDTL NUMBER    0.9408   0.9418   0.9418   0.9284   0.9141   0.8984   0.8817   0.8643

 PERFORMANCE PARAMETERS

 Ae/At                      1.0000   1.0000   1.2000   1.4000   1.6000   1.8000   2.0000
 CSTAR, M/SEC                630.7    630.7    630.7    630.7    630.7    630.7    630.7
 CF                         0.7193   0.7193   1.0046   1.1032   1.1688   1.2177   1.2562
 Ivac, M/SEC                 794.1    794.1    838.6    867.4    888.9    906.0    919.9
 Isp, M/SEC                  453.7    453.7    633.6    695.8    737.2    768.0    792.3

 MOLE FRACTIONS

 H2O             0.79542   *O2             0.20458

  * THERMODYNAMIC PROPERTIES FITTED TO 20000.K

    PRODUCTS WHICH WERE CONSIDERED BUT WHOSE MOLE FRACTIONS
    WERE LESS THAN 5.000000E-06 FOR ALL ASSIGNED CONDITIONS

 *H              HO2             *H2             H2O2            *O             
 *OH             O3              H2O(cr)        

 NOTE. WEIGHT FRACTION OF FUEL IN TOTAL FUELS AND OF OXIDANT IN TOTAL OXIDANTS






 POINT ITN      T            H           O 
   1    1     451.752     -37.001     -12.902
 Pinf/Pt = 1.847614
   2    3     388.065     -42.387     -13.130
 Pinf/Pt = 1.852609
   2    2     387.803     -42.413     -13.132
   3    1     387.803     -42.413     -13.132
   4    3     331.533     -48.903     -13.397
 ADD  H2O(L)         
   4    2     353.355     -46.211     -13.402
   4    2     354.113     -46.115     -13.389
   4    2     354.120     -46.114     -13.389
   5    3     345.518     -47.226     -13.548
   5    3     347.178     -47.007     -13.517
   5    2     347.199     -47.004     -13.516
   6    3     339.411     -48.051     -13.668
   6    3     341.950     -47.704     -13.618
   6    2     341.985     -47.700     -13.617
   7    3     334.348     -48.758     -13.772
   7    3     337.724     -48.284     -13.703
   7    2     337.774     -48.277     -13.701
   8    3     328.745     -49.566     -13.892
   8    3     334.135     -48.788     -13.777
   8    2     334.240     -48.773     -13.775





              THEORETICAL ROCKET PERFORMANCE ASSUMING EQUILIBRIUM

           COMPOSITION DURING EXPANSION FROM INFINITE AREA COMBUSTOR

 Pin =    30.0 PSIA
 CASE =                

             REACTANT                    WT FRACTION      ENERGY      TEMP
                                          (SEE NOTE)     KJ/KG-MOL      K  
 FUEL        H2O(L)                       1.0000000   -285841.390    298.000
 OXIDANT     H2O2(L)                      1.0000000   -187793.400    298.000

 O/F=    2.00000  %FUEL= 33.333333  R,EQ.RATIO= 0.660332  PHI,EQ.RATIO= 0.000000

                 CHAMBER   THROAT     EXIT     EXIT     EXIT     EXIT     EXIT     EXIT
 Pinf/P            1.0000   1.8526   1.8526   3.3546   4.4362   5.5243   6.6335   7.7668
 P, BAR            2.0684   1.1165   1.1165  0.61659  0.46625  0.37442  0.31181  0.26632
 T, K              451.75   387.80   387.80   354.12   347.20   341.99   337.77   334.24
 RHO, KG/CU M    1.1496 0 7.2286-1 7.2286-1 4.4444-1 3.4751-1 2.8631-1 2.4350-1 2.1171-1
 H, KJ/KG        -8969.50 -9072.41 -9072.41 -9158.56 -9196.69 -9225.74 -9249.42 -9269.44
 U, KJ/KG        -9149.43 -9226.87 -9226.87 -9297.29 -9330.86 -9356.51 -9377.47 -9395.23
 G, KJ/KG        -13386.9 -12864.5 -12864.5 -12621.3 -12591.8 -12569.8 -12552.3 -12537.8
 S, KJ/(KG)(K)     9.7784   9.7784   9.7784   9.7784   9.7784   9.7784   9.7784   9.7784

 M, (1/n)          20.876   20.876   20.876   21.223   21.516   21.743   21.931   22.092
 MW, MOL WT        20.876   20.876   20.876   20.876   20.876   20.876   20.876   20.876
 (dLV/dLP)t      -1.00000 -1.00000 -1.00000 -4.80826 -4.74271 -4.69310 -4.65288 -4.61901
 (dLV/dLT)p        1.0000   1.0000   1.0000  54.9009  55.4029  55.7820  56.0888  56.3465
 Cp, KJ/(KG)(K)    1.6235   1.5958   1.5958 300.5004 307.2269 312.3969 316.6384 320.2446
 GAMMAs            1.3251   1.3326   1.3326   1.1381   1.1340   1.1309   1.1284   1.1264
 SON VEL,M/SEC      488.3    453.7    453.7    397.4    390.1    384.6    380.1    376.4
 MACH NUMBER        0.000    1.000    1.000    1.547    1.728    1.862    1.968    2.058

 TRANSPORT PROPERTIES (GASES ONLY)
   CONDUCTIVITY IN UNITS OF MILLIWATTS/(CM)(K)

 VISC,MILLIPOISE  0.19923  0.17225  0.17225  0.15896  0.15666  0.15495  0.15358  0.15243

  WITH EQUILIBRIUM REACTIONS

 Cp, KJ/(KG)(K)    1.6235   1.5958   1.5958   1.5791   1.5732   1.5688   1.5652   1.5621
 CONDUCTIVITY      0.3438   0.2919   0.2919   0.2680   0.2637   0.2606   0.2581   0.2561
 PRANDTL NUMBER    0.9408   0.9418   0.9418   0.9366   0.9346   0.9328   0.9313   0.9299

  WITH FROZEN REACTIONS

 Cp, KJ/(KG)(K)    1.6235   1.5958   1.5958   1.5791   1.5732   1.5688   1.5652   1.5621
 CONDUCTIVITY      0.3438   0.2919   0.2919   0.2680   0.2637   0.2606   0.2581   0.2561
 PRANDTL NUMBER    0.9408   0.9418   0.9418   0.9366   0.9346   0.9328   0.9313   0.9299

 PERFORMANCE PARAMETERS

 Ae/At                      1.0000   1.0000   1.2000   1.4000   1.6000   1.8000   2.0000
 CSTAR, M/SEC                630.7    630.7    630.7    630.7    630.7    630.7    630.7
 CF                         0.7193   0.7193   0.9749   1.0687   1.1350   1.1863   1.2280
 Ivac, M/SEC                 794.1    794.1    840.5    873.1    898.6    919.4    936.9
 Isp, M/SEC                  453.7    453.7    614.9    674.1    715.9    748.2    774.5


 MOLE FRACTIONS

 H2O              0.79542  0.79542  0.79542  0.77909  0.76568  0.75553  0.74730  0.74037
 *O2              0.20458  0.20458  0.20458  0.20458  0.20458  0.20458  0.20458  0.20458
 H2O(L)           0.00000  0.00000  0.00000  0.01633  0.02974  0.03989  0.04812  0.05505

  * THERMODYNAMIC PROPERTIES FITTED TO 20000.K

    PRODUCTS WHICH WERE CONSIDERED BUT WHOSE MOLE FRACTIONS
    WERE LESS THAN 5.000000E-06 FOR ALL ASSIGNED CONDITIONS

 *H              HO2             *H2             H2O2            *O             
 *OH             O3              H2O(cr)        

 NOTE. WEIGHT FRACTION OF FUEL IN TOTAL FUELS AND OF OXIDANT IN TOTAL OXIDANTS





           THEORETICAL ROCKET PERFORMANCE ASSUMING FROZEN COMPOSITION

 Pin =    30.0 PSIA
 CASE =                

             REACTANT                    WT FRACTION      ENERGY      TEMP
                                          (SEE NOTE)     KJ/KG-MOL      K  
 FUEL        H2O(L)                       1.0000000   -285841.390    298.000
 OXIDANT     H2O2(L)                      1.0000000   -187793.400    298.000

 O/F=    2.00000  %FUEL= 33.333333  R,EQ.RATIO= 0.660332  PHI,EQ.RATIO= 0.000000

                 CHAMBER   THROAT     EXIT     EXIT     EXIT     EXIT     EXIT     EXIT
 Pinf/P            1.0000   1.8526   1.8526   3.6930   5.1467   6.6519   8.2309   9.8867
 P, BAR            2.0684   1.1165   1.1165  0.56009  0.40189  0.31095  0.25130  0.20921
 T, K              451.75   387.80   387.80   326.06   299.75   280.81   265.98   253.83
 RHO, KG/CU M    1.1496 0 7.2286-1 7.2286-1 4.3129-1 3.3664-1 2.7803-1 2.3722-1 2.0695-1
 H, KJ/KG        -8969.50 -9072.41 -9072.41 -9170.26 -9211.60 -9241.25 -9264.43 -9283.40
 U, KJ/KG        -9149.43 -9226.87 -9226.87 -9300.12 -9330.98 -9353.09 -9370.37 -9384.50
 G, KJ/KG        -13386.9 -12864.5 -12864.5 -12358.6 -12142.7 -11987.2 -11865.3 -11765.5
 S, KJ/(KG)(K)     9.7784   9.7784   9.7784   9.7784   9.7784   9.7784   9.7784   9.7784

 M, (1/n)          20.876   20.876   20.876   20.876   20.876   20.876   20.876   20.876
 MW, MOL WT        20.876   20.876   20.876   20.876   20.876   20.876   20.876   20.876
 Cp, KJ/(KG)(K)    1.6235   1.5958   1.5958   1.5746   1.5680   1.5643   1.5621   1.5606
 GAMMAs            1.3251   1.3326   1.3326   1.3386   1.3405   1.3416   1.3422   1.3427
 SON VEL,M/SEC      488.3    453.7    453.7    416.9    400.0    387.4    377.1    368.4
 MACH NUMBER        0.000    1.000    1.000    1.520    1.739    1.903    2.037    2.151

 TRANSPORT PROPERTIES (GASES ONLY)
   CONDUCTIVITY IN UNITS OF MILLIWATTS/(CM)(K)

 VISC,MILLIPOISE  0.19923  0.17225  0.17225  0.14708  0.13696  0.13005  0.12495  0.12104

  WITH FROZEN REACTIONS

 Cp, KJ/(KG)(K)    1.6235   1.5958   1.5958   1.5746   1.5680   1.5643   1.5621   1.5606
 CONDUCTIVITY      0.3438   0.2919   0.2919   0.2495   0.2349   0.2265   0.2214   0.2185
 PRANDTL NUMBER    0.9408   0.9418   0.9418   0.9284   0.9141   0.8984   0.8817   0.8643

 PERFORMANCE PARAMETERS

 Ae/At                      1.0000   1.0000   1.2000   1.4000   1.6000   1.8000   2.0000
 CSTAR, M/SEC                630.7    630.7    630.7    630.7    630.7    630.7    630.7
 CF                         0.7193   0.7193   1.0046   1.1032   1.1688   1.2177   1.2562
 Ivac, M/SEC                 794.1    794.1    838.6    867.4    888.9    906.0    919.9
 Isp, M/SEC                  453.7    453.7    633.6    695.8    737.2    768.0    792.3

 MOLE FRACTIONS

 H2O             0.79542   *O2             0.20458

  * THERMODYNAMIC PROPERTIES FITTED TO 20000.K

    PRODUCTS WHICH WERE CONSIDERED BUT WHOSE MOLE FRACTIONS
    WERE LESS THAN 5.000000E-06 FOR ALL ASSIGNED CONDITIONS

 *H              HO2             *H2             H2O2            *O             
 *OH             O3              H2O(cr)        

 NOTE. WEIGHT FRACTION OF FUEL IN TOTAL FUELS AND OF OXIDANT IN TOTAL OXIDANTS






 POINT ITN      T            H           O 
   1    1     451.752     -36.929     -12.758
 Pinf/Pt = 1.847614
   2    3     388.065     -42.315     -12.987
 Pinf/Pt = 1.852609
   2    2     387.803     -42.341     -12.988
   3    1     387.803     -42.341     -12.988
   4    3     331.533     -48.832     -13.253
 ADD  H2O(L)         
   4    3     360.647     -45.313     -13.261
   4    2     362.055     -45.143     -13.237
   4    2     362.080     -45.140     -13.237
   5    3     352.428     -46.335     -13.406
   5    3     354.610     -46.059     -13.367
   5    2     354.645     -46.055     -13.366
   6    3     346.033     -47.164     -13.526
   6    3     349.051     -46.769     -13.468
   6    2     349.100     -46.763     -13.468
   7    3     340.738     -47.875     -13.629
   7    3     344.579     -47.358     -13.554
   7    2     344.642     -47.349     -13.552
   8    3     334.884     -48.688     -13.748
   8    3     340.788     -47.869     -13.628
   8    2     340.912     -47.852     -13.626





              THEORETICAL ROCKET PERFORMANCE ASSUMING EQUILIBRIUM

           COMPOSITION DURING EXPANSION FROM INFINITE AREA COMBUSTOR

 Pin =    40.0 PSIA
 CASE =                

             REACTANT                    WT FRACTION      ENERGY      TEMP
                                          (SEE NOTE)     KJ/KG-MOL      K  
 FUEL        H2O(L)                       1.0000000   -285841.390    298.000
 OXIDANT     H2O2(L)                      1.0000000   -187793.400    298.000

 O/F=    2.00000  %FUEL= 33.333333  R,EQ.RATIO= 0.660332  PHI,EQ.RATIO= 0.000000

                 CHAMBER   THROAT     EXIT     EXIT     EXIT     EXIT     EXIT     EXIT
 Pinf/P            1.0000   1.8526   1.8526   3.2762   4.3574   5.4409   6.5443   7.6712
 P, BAR            2.7579   1.4887   1.4887  0.84180  0.63292  0.50688  0.42142  0.35951
 T, K              451.75   387.80   387.80   362.08   354.65   349.10   344.64   340.91
 RHO, KG/CU M    1.5328 0 9.6381-1 9.6381-1 5.9659-1 4.6449-1 3.8198-1 3.2452-1 2.8196-1
 H, KJ/KG        -8969.50 -9072.41 -9072.41 -9156.03 -9195.57 -9225.43 -9249.67 -9270.11
 U, KJ/KG        -9149.43 -9226.87 -9226.87 -9297.13 -9331.83 -9358.13 -9379.53 -9397.61
 G, KJ/KG        -13335.2 -12820.1 -12820.1 -12655.1 -12622.8 -12599.1 -12580.2 -12564.6
 S, KJ/(KG)(K)     9.6639   9.6639   9.6639   9.6639   9.6639   9.6639   9.6639   9.6639

 M, (1/n)          20.876   20.876   20.876   21.336   21.640   21.874   22.067   22.231
 MW, MOL WT        20.876   20.876   20.876   20.876   20.876   20.876   20.876   20.876
 (dLV/dLP)t      -1.00000 -1.00000 -1.00000 -4.78273 -4.71551 -4.66508 -4.62437 -4.59017
 (dLV/dLT)p        1.0000   1.0000   1.0000  52.9455  53.4826  53.8844  54.2081  54.4794
 Cp, KJ/(KG)(K)    1.6235   1.5958   1.5958 279.6104 286.4873 291.7278 296.0115 299.6458
 GAMMAs            1.3251   1.3326   1.3326   1.1417   1.1372   1.1339   1.1313   1.1291
 SON VEL,M/SEC      488.3    453.7    453.7    401.4    393.6    387.9    383.3    379.4
 MACH NUMBER        0.000    1.000    1.000    1.522    1.708    1.844    1.953    2.044

 TRANSPORT PROPERTIES (GASES ONLY)
   CONDUCTIVITY IN UNITS OF MILLIWATTS/(CM)(K)

 VISC,MILLIPOISE  0.19923  0.17225  0.17225  0.16243  0.15992  0.15807  0.15659  0.15536

  WITH EQUILIBRIUM REACTIONS

 Cp, KJ/(KG)(K)    1.6235   1.5958   1.5958   1.5805   1.5741   1.5694   1.5657   1.5625
 CONDUCTIVITY      0.3438   0.2919   0.2919   0.2737   0.2689   0.2655   0.2627   0.2605
 PRANDTL NUMBER    0.9408   0.9418   0.9418   0.9380   0.9361   0.9345   0.9331   0.9318

  WITH FROZEN REACTIONS

 Cp, KJ/(KG)(K)    1.6235   1.5958   1.5958   1.5805   1.5741   1.5694   1.5657   1.5625
 CONDUCTIVITY      0.3438   0.2919   0.2919   0.2737   0.2689   0.2655   0.2627   0.2605
 PRANDTL NUMBER    0.9408   0.9418   0.9418   0.9380   0.9361   0.9345   0.9331   0.9318

 PERFORMANCE PARAMETERS

 Ae/At                      1.0000   1.0000   1.2000   1.4000   1.6000   1.8000   2.0000
 CSTAR, M/SEC                630.7    630.7    630.7    630.7    630.7    630.7    630.7
 CF                         0.7193   0.7193   0.9684   1.0661   1.1343   1.1868   1.2294
 Ivac, M/SEC                 794.1    794.1    841.8    875.1    900.9    922.0    939.8
 Isp, M/SEC                  453.7    453.7    610.8    672.4    715.4    748.6    775.4


 MOLE FRACTIONS

 H2O              0.79542  0.79542  0.79542  0.77387  0.76011  0.74980  0.74147  0.73447
 *O2              0.20458  0.20458  0.20458  0.20458  0.20458  0.20458  0.20458  0.20458
 H2O(L)           0.00000  0.00000  0.00000  0.02156  0.03531  0.04562  0.05395  0.06095

  * THERMODYNAMIC PROPERTIES FITTED TO 20000.K

    PRODUCTS WHICH WERE CONSIDERED BUT WHOSE MOLE FRACTIONS
    WERE LESS THAN 5.000000E-06 FOR ALL ASSIGNED CONDITIONS

 *H              HO2             *H2             H2O2            *O             
 *OH             O3              H2O(cr)        

 NOTE. WEIGHT FRACTION OF FUEL IN TOTAL FUELS AND OF OXIDANT IN TOTAL OXIDANTS





           THEORETICAL ROCKET PERFORMANCE ASSUMING FROZEN COMPOSITION

 Pin =    40.0 PSIA
 CASE =                

             REACTANT                    WT FRACTION      ENERGY      TEMP
                                          (SEE NOTE)     KJ/KG-MOL      K  
 FUEL        H2O(L)                       1.0000000   -285841.390    298.000
 OXIDANT     H2O2(L)                      1.0000000   -187793.400    298.000

 O/F=    2.00000  %FUEL= 33.333333  R,EQ.RATIO= 0.660332  PHI,EQ.RATIO= 0.000000

                 CHAMBER   THROAT     EXIT     EXIT     EXIT     EXIT     EXIT     EXIT
 Pinf/P            1.0000   1.8526   1.8526   3.6930   5.1467   6.6519   8.2309   9.8867
 P, BAR            2.7579   1.4887   1.4887  0.74679  0.53585  0.41460  0.33507  0.27895
 T, K              451.75   387.80   387.80   326.06   299.75   280.81   265.98   253.83
 RHO, KG/CU M    1.5328 0 9.6381-1 9.6381-1 5.7506-1 4.4885-1 3.7070-1 3.1629-1 2.7593-1
 H, KJ/KG        -8969.50 -9072.41 -9072.41 -9170.26 -9211.60 -9241.25 -9264.43 -9283.40
 U, KJ/KG        -9149.43 -9226.87 -9226.87 -9300.12 -9330.98 -9353.09 -9370.37 -9384.50
 G, KJ/KG        -13335.2 -12820.1 -12820.1 -12321.2 -12108.3 -11955.0 -11834.8 -11736.4
 S, KJ/(KG)(K)     9.6639   9.6639   9.6639   9.6639   9.6639   9.6639   9.6639   9.6639

 M, (1/n)          20.876   20.876   20.876   20.876   20.876   20.876   20.876   20.876
 MW, MOL WT        20.876   20.876   20.876   20.876   20.876   20.876   20.876   20.876
 Cp, KJ/(KG)(K)    1.6235   1.5958   1.5958   1.5746   1.5680   1.5643   1.5621   1.5606
 GAMMAs            1.3251   1.3326   1.3326   1.3386   1.3405   1.3416   1.3422   1.3427
 SON VEL,M/SEC      488.3    453.7    453.7    416.9    400.0    387.4    377.1    368.4
 MACH NUMBER        0.000    1.000    1.000    1.520    1.739    1.903    2.037    2.151

 TRANSPORT PROPERTIES (GASES ONLY)
   CONDUCTIVITY IN UNITS OF MILLIWATTS/(CM)(K)

 VISC,MILLIPOISE  0.19923  0.17225  0.17225  0.14708  0.13696  0.13005  0.12495  0.12104

  WITH FROZEN REACTIONS

 Cp, KJ/(KG)(K)    1.6235   1.5958   1.5958   1.5746   1.5680   1.5643   1.5621   1.5606
 CONDUCTIVITY      0.3438   0.2919   0.2919   0.2495   0.2349   0.2265   0.2214   0.2185
 PRANDTL NUMBER    0.9408   0.9418   0.9418   0.9284   0.9141   0.8984   0.8817   0.8643

 PERFORMANCE PARAMETERS

 Ae/At                      1.0000   1.0000   1.2000   1.4000   1.6000   1.8000   2.0000
 CSTAR, M/SEC                630.7    630.7    630.7    630.7    630.7    630.7    630.7
 CF                         0.7193   0.7193   1.0046   1.1032   1.1688   1.2177   1.2562
 Ivac, M/SEC                 794.1    794.1    838.6    867.4    888.9    906.0    919.9
 Isp, M/SEC                  453.7    453.7    633.6    695.8    737.2    768.0    792.3

 MOLE FRACTIONS

 H2O             0.79542   *O2             0.20458

  * THERMODYNAMIC PROPERTIES FITTED TO 20000.K

    PRODUCTS WHICH WERE CONSIDERED BUT WHOSE MOLE FRACTIONS
    WERE LESS THAN 5.000000E-06 FOR ALL ASSIGNED CONDITIONS

 *H              HO2             *H2             H2O2            *O             
 *OH             O3              H2O(cr)        

 NOTE. WEIGHT FRACTION OF FUEL IN TOTAL FUELS AND OF OXIDANT IN TOTAL OXIDANTS






 POINT ITN      T            H           O 
   1    1     451.752     -36.873     -12.646
 Pinf/Pt = 1.847614
   2    3     388.065     -42.259     -12.875
 Pinf/Pt = 1.852609
   2    2     387.803     -42.285     -12.876
   3    1     387.803     -42.285     -12.876
   4    3     331.533     -48.776     -13.141
 ADD  H2O(L)         
   4    3     366.549     -44.613     -13.152
   4    3     368.490     -44.387     -13.121
   4    2     368.537     -44.381     -13.120
   5    3     358.013     -45.640     -13.296
   5    3     360.618     -45.322     -13.251
   5    2     360.668     -45.316     -13.250
   6    3     351.380     -46.474     -13.415
   6    3     354.785     -46.042     -13.353
   6    2     354.847     -46.034     -13.352
   7    3     345.892     -47.188     -13.518
   7    3     350.109     -46.637     -13.439
   7    2     350.185     -46.628     -13.437
   8    3     339.830     -48.005     -13.637
   8    3     346.151     -47.154     -13.513
   8    2     346.291     -47.135     -13.510





              THEORETICAL ROCKET PERFORMANCE ASSUMING EQUILIBRIUM

           COMPOSITION DURING EXPANSION FROM INFINITE AREA COMBUSTOR

 Pin =    50.0 PSIA
 CASE =                

             REACTANT                    WT FRACTION      ENERGY      TEMP
                                          (SEE NOTE)     KJ/KG-MOL      K  
 FUEL        H2O(L)                       1.0000000   -285841.390    298.000
 OXIDANT     H2O2(L)                      1.0000000   -187793.400    298.000

 O/F=    2.00000  %FUEL= 33.333333  R,EQ.RATIO= 0.660332  PHI,EQ.RATIO= 0.000000

                 CHAMBER   THROAT     EXIT     EXIT     EXIT     EXIT     EXIT     EXIT
 Pinf/P            1.0000   1.8526   1.8526   3.2182   4.2996   5.3800   6.4792   7.6016
 P, BAR            3.4474   1.8608   1.8608   1.0712  0.80179  0.64078  0.53207  0.45350
 T, K              451.75   387.80   387.80   368.54   360.67   354.85   350.18   346.29
 RHO, KG/CU M    1.9160 0 1.2048 0 1.2048 0 7.4930-1 5.8143-1 4.7748-1 4.0534-1 3.5200-1
 H, KJ/KG        -8969.50 -9072.41 -9072.41 -9154.26 -9194.93 -9225.43 -9250.10 -9270.88
 U, KJ/KG        -9149.43 -9226.87 -9226.87 -9297.22 -9332.83 -9359.63 -9381.37 -9399.71
 G, KJ/KG        -13295.0 -12785.6 -12785.6 -12683.0 -12648.3 -12623.1 -12603.1 -12586.6
 S, KJ/(KG)(K)     9.5750   9.5750   9.5750   9.5750   9.5750   9.5750   9.5750   9.5750

 M, (1/n)          20.876   20.876   20.876   21.433   21.746   21.985   22.181   22.348
 MW, MOL WT        20.876   20.876   20.876   20.876   20.876   20.876   20.876   20.876
 (dLV/dLP)t      -1.00000 -1.00000 -1.00000 -4.76097 -4.69250 -4.64152 -4.60048 -4.56607
 (dLV/dLT)p        1.0000   1.0000   1.0000  51.4108  51.9774  52.3979  52.7355  53.0180
 Cp, KJ/(KG)(K)    1.6235   1.5958   1.5958 263.7551 270.7496 276.0420 280.3561 284.0105
 GAMMAs            1.3251   1.3326   1.3326   1.1446   1.1398   1.1363   1.1336   1.1313
 SON VEL,M/SEC      488.3    453.7    453.7    404.5    396.5    390.5    385.7    381.8
 MACH NUMBER        0.000    1.000    1.000    1.503    1.694    1.832    1.942    2.034

 TRANSPORT PROPERTIES (GASES ONLY)
   CONDUCTIVITY IN UNITS OF MILLIWATTS/(CM)(K)

 VISC,MILLIPOISE  0.19923  0.17225  0.17225  0.16527  0.16259  0.16062  0.15906  0.15776

  WITH EQUILIBRIUM REACTIONS

 Cp, KJ/(KG)(K)    1.6235   1.5958   1.5958   1.5816   1.5749   1.5700   1.5661   1.5628
 CONDUCTIVITY      0.3438   0.2919   0.2919   0.2784   0.2732   0.2695   0.2666   0.2642
 PRANDTL NUMBER    0.9408   0.9418   0.9418   0.9389   0.9372   0.9357   0.9343   0.9331

  WITH FROZEN REACTIONS

 Cp, KJ/(KG)(K)    1.6235   1.5958   1.5958   1.5816   1.5749   1.5700   1.5661   1.5628
 CONDUCTIVITY      0.3438   0.2919   0.2919   0.2784   0.2732   0.2695   0.2666   0.2642
 PRANDTL NUMBER    0.9408   0.9418   0.9418   0.9389   0.9372   0.9357   0.9343   0.9331

 PERFORMANCE PARAMETERS

 Ae/At                      1.0000   1.0000   1.2000   1.4000   1.6000   1.8000   2.0000
 CSTAR, M/SEC                630.7    630.7    630.7    630.7    630.7    630.7    630.7
 CF                         0.7193   0.7193   0.9638   1.0646   1.1343   1.1877   1.2309
 Ivac, M/SEC                 794.1    794.1    843.1    876.8    903.0    924.4    942.3
 Isp, M/SEC                  453.7    453.7    607.9    671.5    715.4    749.1    776.4


 MOLE FRACTIONS

 H2O              0.79542  0.79542  0.79542  0.76941  0.75541  0.74498  0.73658  0.72954
 *O2              0.20458  0.20458  0.20458  0.20458  0.20458  0.20458  0.20458  0.20458
 H2O(L)           0.00000  0.00000  0.00000  0.02601  0.04002  0.05045  0.05884  0.06588

  * THERMODYNAMIC PROPERTIES FITTED TO 20000.K

    PRODUCTS WHICH WERE CONSIDERED BUT WHOSE MOLE FRACTIONS
    WERE LESS THAN 5.000000E-06 FOR ALL ASSIGNED CONDITIONS

 *H              HO2             *H2             H2O2            *O             
 *OH             O3              H2O(cr)        

 NOTE. WEIGHT FRACTION OF FUEL IN TOTAL FUELS AND OF OXIDANT IN TOTAL OXIDANTS





           THEORETICAL ROCKET PERFORMANCE ASSUMING FROZEN COMPOSITION

 Pin =    50.0 PSIA
 CASE =                

             REACTANT                    WT FRACTION      ENERGY      TEMP
                                          (SEE NOTE)     KJ/KG-MOL      K  
 FUEL        H2O(L)                       1.0000000   -285841.390    298.000
 OXIDANT     H2O2(L)                      1.0000000   -187793.400    298.000

 O/F=    2.00000  %FUEL= 33.333333  R,EQ.RATIO= 0.660332  PHI,EQ.RATIO= 0.000000

                 CHAMBER   THROAT     EXIT     EXIT     EXIT     EXIT     EXIT     EXIT
 Pinf/P            1.0000   1.8526   1.8526   3.6930   5.1467   6.6519   8.2309   9.8867
 P, BAR            3.4474   1.8608   1.8608  0.93348  0.66982  0.51825  0.41883  0.34869
 T, K              451.75   387.80   387.80   326.06   299.75   280.81   265.98   253.83
 RHO, KG/CU M    1.9160 0 1.2048 0 1.2048 0 7.1882-1 5.6107-1 4.6338-1 3.9537-1 3.4491-1
 H, KJ/KG        -8969.50 -9072.41 -9072.41 -9170.26 -9211.60 -9241.25 -9264.43 -9283.40
 U, KJ/KG        -9149.43 -9226.87 -9226.87 -9300.12 -9330.98 -9353.09 -9370.37 -9384.50
 G, KJ/KG        -13295.0 -12785.6 -12785.6 -12292.3 -12081.7 -11930.0 -11811.2 -11713.8
 S, KJ/(KG)(K)     9.5750   9.5750   9.5750   9.5750   9.5750   9.5750   9.5750   9.5750

 M, (1/n)          20.876   20.876   20.876   20.876   20.876   20.876   20.876   20.876
 MW, MOL WT        20.876   20.876   20.876   20.876   20.876   20.876   20.876   20.876
 Cp, KJ/(KG)(K)    1.6235   1.5958   1.5958   1.5746   1.5680   1.5643   1.5621   1.5606
 GAMMAs            1.3251   1.3326   1.3326   1.3386   1.3405   1.3416   1.3422   1.3427
 SON VEL,M/SEC      488.3    453.7    453.7    416.9    400.0    387.4    377.1    368.4
 MACH NUMBER        0.000    1.000    1.000    1.520    1.739    1.903    2.037    2.151

 TRANSPORT PROPERTIES (GASES ONLY)
   CONDUCTIVITY IN UNITS OF MILLIWATTS/(CM)(K)

 VISC,MILLIPOISE  0.19923  0.17225  0.17225  0.14708  0.13696  0.13005  0.12495  0.12104

  WITH FROZEN REACTIONS

 Cp, KJ/(KG)(K)    1.6235   1.5958   1.5958   1.5746   1.5680   1.5643   1.5621   1.5606
 CONDUCTIVITY      0.3438   0.2919   0.2919   0.2495   0.2349   0.2265   0.2214   0.2185
 PRANDTL NUMBER    0.9408   0.9418   0.9418   0.9284   0.9141   0.8984   0.8817   0.8643

 PERFORMANCE PARAMETERS

 Ae/At                      1.0000   1.0000   1.2000   1.4000   1.6000   1.8000   2.0000
 CSTAR, M/SEC                630.7    630.7    630.7    630.7    630.7    630.7    630.7
 CF                         0.7193   0.7193   1.0046   1.1032   1.1688   1.2177   1.2562
 Ivac, M/SEC                 794.1    794.1    838.6    867.4    888.9    906.0    919.9
 Isp, M/SEC                  453.7    453.7    633.6    695.8    737.2    768.0    792.3

 MOLE FRACTIONS

 H2O             0.79542   *O2             0.20458

  * THERMODYNAMIC PROPERTIES FITTED TO 20000.K

    PRODUCTS WHICH WERE CONSIDERED BUT WHOSE MOLE FRACTIONS
    WERE LESS THAN 5.000000E-06 FOR ALL ASSIGNED CONDITIONS

 *H              HO2             *H2             H2O2            *O             
 *OH             O3              H2O(cr)        

 NOTE. WEIGHT FRACTION OF FUEL IN TOTAL FUELS AND OF OXIDANT IN TOTAL OXIDANTS






 O/F =   2.200000

                       EFFECTIVE FUEL     EFFECTIVE OXIDANT        MIXTURE
 ENTHALPY                  h(2)/R              h(1)/R               h0/R
 (KG-MOL)(K)/KG       -0.19083035E+04     -0.66401406E+03     -0.10528545E+04

 KG-FORM.WT./KG             bi(2)               bi(1)               b0i
  *H                   0.11101687E+00      0.58798142E-01      0.75116495E-01
  *O                   0.55508435E-01      0.58798142E-01      0.57770109E-01

 POINT ITN      T            H           O 
   1    3     504.279     -33.810     -13.161
 Pinf/Pt = 1.843833
   2    3     434.256     -38.551     -13.369
 Pinf/Pt = 1.849690
   2    2     433.916     -38.577     -13.370
   3    1     433.916     -38.577     -13.370
   4    3     371.499     -44.319     -13.611
   4    2     365.365     -44.989     -13.639
   4    2     365.511     -44.973     -13.638
   5    3     342.837     -47.656     -13.747
   5    2     336.110     -48.522     -13.782
   5    2     336.211     -48.509     -13.782
   6    2     320.962     -50.605     -13.866
 ADD  H2O(L)         
   6    2     330.556     -49.295     -13.866
   6    2     329.990     -49.378     -13.879
   6    1     329.992     -49.377     -13.879
   7    3     325.791     -49.997     -13.971
   7    2     326.315     -49.919     -13.959
   8    3     320.579     -50.790     -14.090
   8    3     323.168     -50.393     -14.030
   8    2     323.190     -50.390     -14.030





              THEORETICAL ROCKET PERFORMANCE ASSUMING EQUILIBRIUM

           COMPOSITION DURING EXPANSION FROM INFINITE AREA COMBUSTOR

 Pin =    20.0 PSIA
 CASE =                

             REACTANT                    WT FRACTION      ENERGY      TEMP
                                          (SEE NOTE)     KJ/KG-MOL      K  
 FUEL        H2O(L)                       1.0000000   -285841.390    298.000
 OXIDANT     H2O2(L)                      1.0000000   -187793.400    298.000

 O/F=    2.20000  %FUEL= 31.250000  R,EQ.RATIO= 0.650133  PHI,EQ.RATIO= 0.000000

                 CHAMBER   THROAT     EXIT     EXIT     EXIT     EXIT     EXIT     EXIT
 Pinf/P            1.0000   1.8497   1.8497   3.6831   5.1314   6.3282   7.5261   8.7522
 P, BAR            1.3789  0.74550  0.74550  0.37440  0.26872  0.21790  0.18322  0.15755
 T, K              504.28   433.92   433.92   365.51   336.21   329.99   326.31   323.19
 RHO, KG/CU M    6.9000-1 4.3352-1 4.3352-1 2.5847-1 2.0168-1 1.6809-1 1.4410-1 1.2599-1
 H, KJ/KG        -8753.97 -8868.12 -8868.12 -8976.98 -9023.07 -9050.58 -9072.83 -9091.86
 U, KJ/KG        -8953.82 -9040.08 -9040.08 -9121.83 -9156.31 -9180.21 -9199.98 -9216.92
 G, KJ/KG        -13836.4 -13241.4 -13241.4 -12660.8 -12411.6 -12376.4 -12361.6 -12349.2
 S, KJ/(KG)(K)    10.0786  10.0786  10.0786  10.0786  10.0786  10.0786  10.0786  10.0786

 M, (1/n)          20.980   20.980   20.980   20.980   20.980   21.165   21.338   21.488
 MW, MOL WT        20.980   20.980   20.980   20.980   20.980   20.980   20.980   20.980
 (dLV/dLP)t      -1.00000 -1.00000 -1.00000 -1.00000 -1.00000 -4.67528 -4.63731 -4.60498
 (dLV/dLT)p        1.0000   1.0000   1.0000   1.0000   1.0000  58.1673  58.4192  58.6334
 Cp, KJ/(KG)(K)    1.6393   1.6059   1.6059   1.5780   1.5683 350.9054 354.7922 358.1329
 GAMMAs            1.3188   1.3276   1.3276   1.3354   1.3381   1.1268   1.1246   1.1228
 SON VEL,M/SEC      513.4    477.8    477.8    439.8    422.3    382.2    378.2    374.7
 MACH NUMBER        0.000    1.000    1.000    1.518    1.737    2.015    2.112    2.194

 TRANSPORT PROPERTIES (GASES ONLY)
   CONDUCTIVITY IN UNITS OF MILLIWATTS/(CM)(K)

 VISC,MILLIPOISE  0.22304  0.19313  0.19313  0.16438  0.15243  0.15027  0.14911  0.14813

  WITH EQUILIBRIUM REACTIONS

 Cp, KJ/(KG)(K)    1.6393   1.6059   1.6059   1.5780   1.5683   1.5641   1.5609   1.5582
 CONDUCTIVITY      0.3915   0.3297   0.3297   0.2765   0.2567   0.2531   0.2510   0.2494
 PRANDTL NUMBER    0.9339   0.9407   0.9407   0.9381   0.9312   0.9288   0.9271   0.9256

  WITH FROZEN REACTIONS

 Cp, KJ/(KG)(K)    1.6393   1.6059   1.6059   1.5780   1.5683   1.5641   1.5609   1.5582
 CONDUCTIVITY      0.3915   0.3297   0.3297   0.2765   0.2567   0.2531   0.2510   0.2494
 PRANDTL NUMBER    0.9339   0.9407   0.9407   0.9381   0.9312   0.9288   0.9271   0.9256

 PERFORMANCE PARAMETERS

 Ae/At                      1.0000   1.0000   1.2000   1.4000   1.6000   1.8000   2.0000
 CSTAR, M/SEC                665.7    665.7    665.7    665.7    665.7    665.7    665.7
 CF                         0.7177   0.7177   1.0032   1.1020   1.1570   1.1996   1.2349
 Ivac, M/SEC                 837.7    837.7    884.7    915.2    938.5    957.8    974.2
 Isp, M/SEC                  477.8    477.8    667.8    733.6    770.2    798.6    822.1


 MOLE FRACTIONS

 H2O              0.78798  0.78798  0.78798  0.78798  0.78798  0.77925  0.77120  0.76434
 *O2              0.21202  0.21202  0.21202  0.21202  0.21202  0.21202  0.21202  0.21202
 H2O(L)           0.00000  0.00000  0.00000  0.00000  0.00000  0.00873  0.01678  0.02364

  * THERMODYNAMIC PROPERTIES FITTED TO 20000.K

    PRODUCTS WHICH WERE CONSIDERED BUT WHOSE MOLE FRACTIONS
    WERE LESS THAN 5.000000E-06 FOR ALL ASSIGNED CONDITIONS

 *H              HO2             *H2             H2O2            *O             
 *OH             O3              H2O(cr)        

 NOTE. WEIGHT FRACTION OF FUEL IN TOTAL FUELS AND OF OXIDANT IN TOTAL OXIDANTS





           THEORETICAL ROCKET PERFORMANCE ASSUMING FROZEN COMPOSITION

 Pin =    20.0 PSIA
 CASE =                

             REACTANT                    WT FRACTION      ENERGY      TEMP
                                          (SEE NOTE)     KJ/KG-MOL      K  
 FUEL        H2O(L)                       1.0000000   -285841.390    298.000
 OXIDANT     H2O2(L)                      1.0000000   -187793.400    298.000

 O/F=    2.20000  %FUEL= 31.250000  R,EQ.RATIO= 0.650133  PHI,EQ.RATIO= 0.000000

                 CHAMBER   THROAT     EXIT     EXIT     EXIT     EXIT     EXIT     EXIT
 Pinf/P            1.0000   1.8497   1.8497   3.6831   5.1314   6.6314   8.2054   9.8562
 P, BAR            1.3789  0.74550  0.74550  0.37440  0.26872  0.20794  0.16805  0.13991
 T, K              504.28   433.92   433.92   365.51   336.21   315.08   298.49   284.88
 RHO, KG/CU M    6.9000-1 4.3352-1 4.3352-1 2.5847-1 2.0168-1 1.6653-1 1.4207-1 1.2392-1
 H, KJ/KG        -8753.97 -8868.12 -8868.12 -8976.98 -9023.07 -9056.15 -9082.04 -9103.22
 U, KJ/KG        -8953.82 -9040.08 -9040.08 -9121.83 -9156.31 -9181.02 -9200.33 -9216.12
 G, KJ/KG        -13836.4 -13241.4 -13241.4 -12660.8 -12411.6 -12231.7 -12090.4 -11974.4
 S, KJ/(KG)(K)    10.0786  10.0786  10.0786  10.0786  10.0786  10.0786  10.0786  10.0786

 M, (1/n)          20.980   20.980   20.980   20.980   20.980   20.980   20.980   20.980
 MW, MOL WT        20.980   20.980   20.980   20.980   20.980   20.980   20.980   20.980
 Cp, KJ/(KG)(K)    1.6393   1.6059   1.6059   1.5780   1.5683   1.5624   1.5585   1.5558
 GAMMAs            1.3188   1.3276   1.3276   1.3354   1.3381   1.3399   1.3410   1.3418
 SON VEL,M/SEC      513.4    477.8    477.8    439.8    422.3    409.0    398.3    389.2
 MACH NUMBER        0.000    1.000    1.000    1.518    1.737    1.901    2.034    2.147

 TRANSPORT PROPERTIES (GASES ONLY)
   CONDUCTIVITY IN UNITS OF MILLIWATTS/(CM)(K)

 VISC,MILLIPOISE  0.22304  0.19313  0.19313  0.16438  0.15243  0.14407  0.13771  0.13269

  WITH FROZEN REACTIONS

 Cp, KJ/(KG)(K)    1.6393   1.6059   1.6059   1.5780   1.5683   1.5624   1.5585   1.5558
 CONDUCTIVITY      0.3915   0.3297   0.3297   0.2765   0.2567   0.2440   0.2352   0.2290
 PRANDTL NUMBER    0.9339   0.9407   0.9407   0.9381   0.9312   0.9225   0.9125   0.9016

 PERFORMANCE PARAMETERS

 Ae/At                      1.0000   1.0000   1.2000   1.4000   1.6000   1.8000   2.0000
 CSTAR, M/SEC                665.7    665.7    665.7    665.7    665.7    665.7    665.7
 CF                         0.7177   0.7177   1.0032   1.1020   1.1678   1.2168   1.2555
 Ivac, M/SEC                 837.7    837.7    884.7    915.2    938.0    956.1    970.9
 Isp, M/SEC                  477.8    477.8    667.8    733.6    777.4    810.0    835.8

 MOLE FRACTIONS

 H2O             0.78798   *O2             0.21202

  * THERMODYNAMIC PROPERTIES FITTED TO 20000.K

    PRODUCTS WHICH WERE CONSIDERED BUT WHOSE MOLE FRACTIONS
    WERE LESS THAN 5.000000E-06 FOR ALL ASSIGNED CONDITIONS

 *H              HO2             *H2             H2O2            *O             
 *OH             O3              H2O(cr)        

 NOTE. WEIGHT FRACTION OF FUEL IN TOTAL FUELS AND OF OXIDANT IN TOTAL OXIDANTS






 POINT ITN      T            H           O 
   1    1     504.279     -33.709     -12.958
 Pinf/Pt = 1.843833
   2    3     434.256     -38.449     -13.167
 Pinf/Pt = 1.849690
   2    2     433.916     -38.476     -13.168
   3    1     433.916     -38.476     -13.168
   4    3     371.499     -44.217     -13.408
   4    2     365.365     -44.887     -13.436
   4    2     365.511     -44.871     -13.435
   5    3     342.837     -47.555     -13.545
 ADD  H2O(L)         
   5    2     345.528     -47.226     -13.545
   5    2     344.277     -47.393     -13.569
   5    2     344.286     -47.392     -13.569
   6    3     339.418     -48.051     -13.665
   6    2     339.439     -48.048     -13.665
   7    3     334.353     -48.759     -13.769
   7    2     335.454     -48.603     -13.746
   7    2     335.459     -48.602     -13.746
   8    3     328.819     -49.557     -13.887
   8    3     332.053     -49.087     -13.818
   8    2     332.087     -49.082     -13.817





              THEORETICAL ROCKET PERFORMANCE ASSUMING EQUILIBRIUM

           COMPOSITION DURING EXPANSION FROM INFINITE AREA COMBUSTOR

 Pin =    30.0 PSIA
 CASE =                

             REACTANT                    WT FRACTION      ENERGY      TEMP
                                          (SEE NOTE)     KJ/KG-MOL      K  
 FUEL        H2O(L)                       1.0000000   -285841.390    298.000
 OXIDANT     H2O2(L)                      1.0000000   -187793.400    298.000

 O/F=    2.20000  %FUEL= 31.250000  R,EQ.RATIO= 0.650133  PHI,EQ.RATIO= 0.000000

                 CHAMBER   THROAT     EXIT     EXIT     EXIT     EXIT     EXIT     EXIT
 Pinf/P            1.0000   1.8497   1.8497   3.6831   5.0038   6.1588   7.3425   8.5547
 P, BAR            2.0684   1.1183   1.1183  0.56160  0.41337  0.33585  0.28171  0.24179
 T, K              504.28   433.92   433.92   365.51   344.29   339.44   335.46   332.09
 RHO, KG/CU M    1.0350 0 6.5029-1 6.5029-1 3.8770-1 3.0439-1 2.5339-1 2.1688-1 1.8940-1
 H, KJ/KG        -8753.97 -8868.12 -8868.12 -8976.98 -9019.78 -9047.65 -9070.71 -9090.39
 U, KJ/KG        -8953.82 -9040.08 -9040.08 -9121.83 -9155.59 -9180.19 -9200.60 -9218.05
 G, KJ/KG        -13755.4 -13171.7 -13171.7 -12602.1 -12434.4 -12414.2 -12397.8 -12384.0
 S, KJ/(KG)(K)     9.9179   9.9179   9.9179   9.9179   9.9179   9.9179   9.9179   9.9179

 M, (1/n)          20.980   20.980   20.980   20.980   21.079   21.293   21.473   21.628
 MW, MOL WT        20.980   20.980   20.980   20.980   20.980   20.980   20.980   20.980
 (dLV/dLP)t      -1.00000 -1.00000 -1.00000 -1.00000 -4.69438 -4.64709 -4.60815 -4.57507
 (dLV/dLT)p        1.0000   1.0000   1.0000   1.0000  55.3111  55.6422  55.9143  56.1450
 Cp, KJ/(KG)(K)    1.6393   1.6059   1.6059   1.5780 316.5199 321.2701 325.2268 328.6193
 GAMMAs            1.3188   1.3276   1.3276   1.3354   1.1340   1.1311   1.1287   1.1268
 SON VEL,M/SEC      513.4    477.8    477.8    439.8    392.4    387.2    382.9    379.3
 MACH NUMBER        0.000    1.000    1.000    1.518    1.858    1.979    2.079    2.163

 TRANSPORT PROPERTIES (GASES ONLY)
   CONDUCTIVITY IN UNITS OF MILLIWATTS/(CM)(K)

 VISC,MILLIPOISE  0.22304  0.19313  0.19313  0.16438  0.15587  0.15430  0.15301  0.15193

  WITH EQUILIBRIUM REACTIONS

 Cp, KJ/(KG)(K)    1.6393   1.6059   1.6059   1.5780   1.5696   1.5653   1.5619   1.5589
 CONDUCTIVITY      0.3915   0.3297   0.3297   0.2765   0.2621   0.2592   0.2569   0.2550
 PRANDTL NUMBER    0.9339   0.9407   0.9407   0.9381   0.9335   0.9318   0.9303   0.9289

  WITH FROZEN REACTIONS

 Cp, KJ/(KG)(K)    1.6393   1.6059   1.6059   1.5780   1.5696   1.5653   1.5619   1.5589
 CONDUCTIVITY      0.3915   0.3297   0.3297   0.2765   0.2621   0.2592   0.2569   0.2550
 PRANDTL NUMBER    0.9339   0.9407   0.9407   0.9381   0.9335   0.9318   0.9303   0.9289

 PERFORMANCE PARAMETERS

 Ae/At                      1.0000   1.0000   1.2000   1.4000   1.6000   1.8000   2.0000
 CSTAR, M/SEC                665.7    665.7    665.7    665.7    665.7    665.7    665.7
 CF                         0.7177   0.7177   1.0032   1.0953   1.1512   1.1956   1.2322
 Ivac, M/SEC                 837.7    837.7    884.7    915.4    939.3    959.1    975.9
 Isp, M/SEC                  477.8    477.8    667.8    729.1    766.4    795.9    820.3


 MOLE FRACTIONS

 H2O              0.78798  0.78798  0.78798  0.78798  0.78330  0.77327  0.76501  0.75800
 *O2              0.21202  0.21202  0.21202  0.21202  0.21202  0.21202  0.21202  0.21202
 H2O(L)           0.00000  0.00000  0.00000  0.00000  0.00468  0.01471  0.02296  0.02998

  * THERMODYNAMIC PROPERTIES FITTED TO 20000.K

    PRODUCTS WHICH WERE CONSIDERED BUT WHOSE MOLE FRACTIONS
    WERE LESS THAN 5.000000E-06 FOR ALL ASSIGNED CONDITIONS

 *H              HO2             *H2             H2O2            *O             
 *OH             O3              H2O(cr)        

 NOTE. WEIGHT FRACTION OF FUEL IN TOTAL FUELS AND OF OXIDANT IN TOTAL OXIDANTS





           THEORETICAL ROCKET PERFORMANCE ASSUMING FROZEN COMPOSITION

 Pin =    30.0 PSIA
 CASE =                

             REACTANT                    WT FRACTION      ENERGY      TEMP
                                          (SEE NOTE)     KJ/KG-MOL      K  
 FUEL        H2O(L)                       1.0000000   -285841.390    298.000
 OXIDANT     H2O2(L)                      1.0000000   -187793.400    298.000

 O/F=    2.20000  %FUEL= 31.250000  R,EQ.RATIO= 0.650133  PHI,EQ.RATIO= 0.000000

                 CHAMBER   THROAT     EXIT     EXIT     EXIT     EXIT     EXIT     EXIT
 Pinf/P            1.0000   1.8497   1.8497   3.6831   5.1314   6.6314   8.2054   9.8562
 P, BAR            2.0684   1.1183   1.1183  0.56160  0.40309  0.31191  0.25208  0.20986
 T, K              504.28   433.92   433.92   365.51   336.21   315.08   298.49   284.88
 RHO, KG/CU M    1.0350 0 6.5029-1 6.5029-1 3.8770-1 3.0252-1 2.4980-1 2.1310-1 1.8588-1
 H, KJ/KG        -8753.97 -8868.12 -8868.12 -8976.98 -9023.07 -9056.15 -9082.04 -9103.22
 U, KJ/KG        -8953.82 -9040.08 -9040.08 -9121.83 -9156.31 -9181.02 -9200.33 -9216.12
 G, KJ/KG        -13755.4 -13171.7 -13171.7 -12602.1 -12357.6 -12181.0 -12042.4 -11928.6
 S, KJ/(KG)(K)     9.9179   9.9179   9.9179   9.9179   9.9179   9.9179   9.9179   9.9179

 M, (1/n)          20.980   20.980   20.980   20.980   20.980   20.980   20.980   20.980
 MW, MOL WT        20.980   20.980   20.980   20.980   20.980   20.980   20.980   20.980
 Cp, KJ/(KG)(K)    1.6393   1.6059   1.6059   1.5780   1.5683   1.5624   1.5585   1.5558
 GAMMAs            1.3188   1.3276   1.3276   1.3354   1.3381   1.3399   1.3410   1.3418
 SON VEL,M/SEC      513.4    477.8    477.8    439.8    422.3    409.0    398.3    389.2
 MACH NUMBER        0.000    1.000    1.000    1.518    1.737    1.901    2.034    2.147

 TRANSPORT PROPERTIES (GASES ONLY)
   CONDUCTIVITY IN UNITS OF MILLIWATTS/(CM)(K)

 VISC,MILLIPOISE  0.22304  0.19313  0.19313  0.16438  0.15243  0.14407  0.13771  0.13269

  WITH FROZEN REACTIONS

 Cp, KJ/(KG)(K)    1.6393   1.6059   1.6059   1.5780   1.5683   1.5624   1.5585   1.5558
 CONDUCTIVITY      0.3915   0.3297   0.3297   0.2765   0.2567   0.2440   0.2352   0.2290
 PRANDTL NUMBER    0.9339   0.9407   0.9407   0.9381   0.9312   0.9225   0.9125   0.9016

 PERFORMANCE PARAMETERS

 Ae/At                      1.0000   1.0000   1.2000   1.4000   1.6000   1.8000   2.0000
 CSTAR, M/SEC                665.7    665.7    665.7    665.7    665.7    665.7    665.7
 CF                         0.7177   0.7177   1.0032   1.1020   1.1678   1.2168   1.2555
 Ivac, M/SEC                 837.7    837.7    884.7    915.2    938.0    956.1    970.9
 Isp, M/SEC                  477.8    477.8    667.8    733.6    777.4    810.0    835.8

 MOLE FRACTIONS

 H2O             0.78798   *O2             0.21202

  * THERMODYNAMIC PROPERTIES FITTED TO 20000.K

    PRODUCTS WHICH WERE CONSIDERED BUT WHOSE MOLE FRACTIONS
    WERE LESS THAN 5.000000E-06 FOR ALL ASSIGNED CONDITIONS

 *H              HO2             *H2             H2O2            *O             
 *OH             O3              H2O(cr)        

 NOTE. WEIGHT FRACTION OF FUEL IN TOTAL FUELS AND OF OXIDANT IN TOTAL OXIDANTS






 POINT ITN      T            H           O 
   1    1     504.279     -33.637     -12.815
 Pinf/Pt = 1.843833
   2    3     434.256     -38.377     -13.023
 Pinf/Pt = 1.849690
   2    2     433.916     -38.404     -13.024
   3    1     433.916     -38.404     -13.024
   4    3     371.499     -44.145     -13.265
   4    2     365.365     -44.816     -13.292
   4    2     365.511     -44.799     -13.291
   5    3     342.837     -47.483     -13.401
 ADD  H2O(L)         
   5    2     352.445     -46.334     -13.404
   5    2     351.686     -46.431     -13.418
   5    2     351.689     -46.430     -13.418
   6    3     346.047     -47.164     -13.523
   6    2     346.527     -47.100     -13.514
   7    3     340.749     -47.875     -13.626
   7    3     342.299     -47.665     -13.596
   7    2     342.308     -47.663     -13.595
   8    3     334.967     -48.678     -13.744
   8    3     338.699     -48.157     -13.667
   8    2     338.743     -48.151     -13.666





              THEORETICAL ROCKET PERFORMANCE ASSUMING EQUILIBRIUM

           COMPOSITION DURING EXPANSION FROM INFINITE AREA COMBUSTOR

 Pin =    40.0 PSIA
 CASE =                

             REACTANT                    WT FRACTION      ENERGY      TEMP
                                          (SEE NOTE)     KJ/KG-MOL      K  
 FUEL        H2O(L)                       1.0000000   -285841.390    298.000
 OXIDANT     H2O2(L)                      1.0000000   -187793.400    298.000

 O/F=    2.20000  %FUEL= 31.250000  R,EQ.RATIO= 0.650133  PHI,EQ.RATIO= 0.000000

                 CHAMBER   THROAT     EXIT     EXIT     EXIT     EXIT     EXIT     EXIT
 Pinf/P            1.0000   1.8497   1.8497   3.6831   4.8956   6.0427   7.2170   8.4197
 P, BAR            2.7579   1.4910   1.4910  0.74880  0.56335  0.45640  0.38214  0.32755
 T, K              504.28   433.92   433.92   365.51   351.69   346.53   342.31   338.74
 RHO, KG/CU M    1.3800 0 8.6705-1 8.6705-1 5.1694-1 4.0794-1 3.3893-1 2.8976-1 2.5283-1
 H, KJ/KG        -8753.97 -8868.12 -8868.12 -8976.98 -9017.06 -9045.77 -9069.44 -9089.58
 U, KJ/KG        -8953.82 -9040.08 -9040.08 -9121.83 -9155.16 -9180.43 -9201.32 -9219.14
 G, KJ/KG        -13697.9 -13122.2 -13122.2 -12560.4 -12465.0 -12443.1 -12425.4 -12410.6
 S, KJ/(KG)(K)     9.8039   9.8039   9.8039   9.8039   9.8039   9.8039   9.8039   9.8039

 M, (1/n)          20.980   20.980   20.980   20.980   21.175   21.396   21.581   21.740
 MW, MOL WT        20.980   20.980   20.980   20.980   20.980   20.980   20.980   20.980
 (dLV/dLP)t      -1.00000 -1.00000 -1.00000 -1.00000 -4.67310 -4.62480 -4.58519 -4.55162
 (dLV/dLT)p        1.0000   1.0000   1.0000   1.0000  53.4744  53.8263  54.1141  54.3576
 Cp, KJ/(KG)(K)    1.6393   1.6059   1.6059   1.5780 295.9527 300.7826 304.7898 308.2191
 GAMMAs            1.3188   1.3276   1.3276   1.3354   1.1374   1.1343   1.1318   1.1297
 SON VEL,M/SEC      513.4    477.8    477.8    439.8    396.3    390.8    386.3    382.6
 MACH NUMBER        0.000    1.000    1.000    1.518    1.830    1.955    2.056    2.142

 TRANSPORT PROPERTIES (GASES ONLY)
   CONDUCTIVITY IN UNITS OF MILLIWATTS/(CM)(K)

 VISC,MILLIPOISE  0.22304  0.19313  0.19313  0.16438  0.15906  0.15736  0.15597  0.15481

  WITH EQUILIBRIUM REACTIONS

 Cp, KJ/(KG)(K)    1.6393   1.6059   1.6059   1.5780   1.5708   1.5663   1.5626   1.5595
 CONDUCTIVITY      0.3915   0.3297   0.3297   0.2765   0.2672   0.2640   0.2615   0.2594
 PRANDTL NUMBER    0.9339   0.9407   0.9407   0.9381   0.9352   0.9336   0.9322   0.9309

  WITH FROZEN REACTIONS

 Cp, KJ/(KG)(K)    1.6393   1.6059   1.6059   1.5780   1.5708   1.5663   1.5626   1.5595
 CONDUCTIVITY      0.3915   0.3297   0.3297   0.2765   0.2672   0.2640   0.2615   0.2594
 PRANDTL NUMBER    0.9339   0.9407   0.9407   0.9381   0.9352   0.9336   0.9322   0.9309

 PERFORMANCE PARAMETERS

 Ae/At                      1.0000   1.0000   1.2000   1.4000   1.6000   1.8000   2.0000
 CSTAR, M/SEC                665.7    665.7    665.7    665.7    665.7    665.7    665.7
 CF                         0.7177   0.7177   1.0032   1.0897   1.1476   1.1932   1.2307
 Ivac, M/SEC                 837.7    837.7    884.7    915.8    940.2    960.3    977.4
 Isp, M/SEC                  477.8    477.8    667.8    725.4    763.9    794.3    819.3


 MOLE FRACTIONS

 H2O              0.78798  0.78798  0.78798  0.78798  0.77878  0.76854  0.76014  0.75303
 *O2              0.21202  0.21202  0.21202  0.21202  0.21202  0.21202  0.21202  0.21202
 H2O(L)           0.00000  0.00000  0.00000  0.00000  0.00919  0.01943  0.02783  0.03495

  * THERMODYNAMIC PROPERTIES FITTED TO 20000.K

    PRODUCTS WHICH WERE CONSIDERED BUT WHOSE MOLE FRACTIONS
    WERE LESS THAN 5.000000E-06 FOR ALL ASSIGNED CONDITIONS

 *H              HO2             *H2             H2O2            *O             
 *OH             O3              H2O(cr)        

 NOTE. WEIGHT FRACTION OF FUEL IN TOTAL FUELS AND OF OXIDANT IN TOTAL OXIDANTS





           THEORETICAL ROCKET PERFORMANCE ASSUMING FROZEN COMPOSITION

 Pin =    40.0 PSIA
 CASE =                

             REACTANT                    WT FRACTION      ENERGY      TEMP
                                          (SEE NOTE)     KJ/KG-MOL      K  
 FUEL        H2O(L)                       1.0000000   -285841.390    298.000
 OXIDANT     H2O2(L)                      1.0000000   -187793.400    298.000

 O/F=    2.20000  %FUEL= 31.250000  R,EQ.RATIO= 0.650133  PHI,EQ.RATIO= 0.000000

                 CHAMBER   THROAT     EXIT     EXIT     EXIT     EXIT     EXIT     EXIT
 Pinf/P            1.0000   1.8497   1.8497   3.6831   5.1314   6.6314   8.2054   9.8562
 P, BAR            2.7579   1.4910   1.4910  0.74880  0.53745  0.41588  0.33611  0.27981
 T, K              504.28   433.92   433.92   365.51   336.21   315.08   298.49   284.88
 RHO, KG/CU M    1.3800 0 8.6705-1 8.6705-1 5.1694-1 4.0336-1 3.3306-1 2.8414-1 2.4784-1
 H, KJ/KG        -8753.97 -8868.12 -8868.12 -8976.98 -9023.07 -9056.15 -9082.04 -9103.22
 U, KJ/KG        -8953.82 -9040.08 -9040.08 -9121.83 -9156.31 -9181.02 -9200.33 -9216.12
 G, KJ/KG        -13697.9 -13122.2 -13122.2 -12560.4 -12319.3 -12145.1 -12008.4 -11896.2
 S, KJ/(KG)(K)     9.8039   9.8039   9.8039   9.8039   9.8039   9.8039   9.8039   9.8039

 M, (1/n)          20.980   20.980   20.980   20.980   20.980   20.980   20.980   20.980
 MW, MOL WT        20.980   20.980   20.980   20.980   20.980   20.980   20.980   20.980
 Cp, KJ/(KG)(K)    1.6393   1.6059   1.6059   1.5780   1.5683   1.5624   1.5585   1.5558
 GAMMAs            1.3188   1.3276   1.3276   1.3354   1.3381   1.3399   1.3410   1.3418
 SON VEL,M/SEC      513.4    477.8    477.8    439.8    422.3    409.0    398.3    389.2
 MACH NUMBER        0.000    1.000    1.000    1.518    1.737    1.901    2.034    2.147

 TRANSPORT PROPERTIES (GASES ONLY)
   CONDUCTIVITY IN UNITS OF MILLIWATTS/(CM)(K)

 VISC,MILLIPOISE  0.22304  0.19313  0.19313  0.16438  0.15243  0.14407  0.13771  0.13269

  WITH FROZEN REACTIONS

 Cp, KJ/(KG)(K)    1.6393   1.6059   1.6059   1.5780   1.5683   1.5624   1.5585   1.5558
 CONDUCTIVITY      0.3915   0.3297   0.3297   0.2765   0.2567   0.2440   0.2352   0.2290
 PRANDTL NUMBER    0.9339   0.9407   0.9407   0.9381   0.9312   0.9225   0.9125   0.9016

 PERFORMANCE PARAMETERS

 Ae/At                      1.0000   1.0000   1.2000   1.4000   1.6000   1.8000   2.0000
 CSTAR, M/SEC                665.7    665.7    665.7    665.7    665.7    665.7    665.7
 CF                         0.7177   0.7177   1.0032   1.1020   1.1678   1.2168   1.2555
 Ivac, M/SEC                 837.7    837.7    884.7    915.2    938.0    956.1    970.9
 Isp, M/SEC                  477.8    477.8    667.8    733.6    777.4    810.0    835.8

 MOLE FRACTIONS

 H2O             0.78798   *O2             0.21202

  * THERMODYNAMIC PROPERTIES FITTED TO 20000.K

    PRODUCTS WHICH WERE CONSIDERED BUT WHOSE MOLE FRACTIONS
    WERE LESS THAN 5.000000E-06 FOR ALL ASSIGNED CONDITIONS

 *H              HO2             *H2             H2O2            *O             
 *OH             O3              H2O(cr)        

 NOTE. WEIGHT FRACTION OF FUEL IN TOTAL FUELS AND OF OXIDANT IN TOTAL OXIDANTS






 POINT ITN      T            H           O 
   1    1     504.279     -33.581     -12.703
 Pinf/Pt = 1.843833
   2    3     434.256     -38.322     -12.911
 Pinf/Pt = 1.849690
   2    2     433.916     -38.348     -12.912
   3    1     433.916     -38.348     -12.912
   4    3     371.499     -44.090     -13.153
   4    2     365.365     -44.760     -13.181
   4    2     365.511     -44.744     -13.180
   5    3     342.837     -47.427     -13.289
 ADD  H2O(L)         
   5    2     358.037     -45.638     -13.294
   5    2     357.689     -45.681     -13.300
   6    3     351.399     -46.472     -13.413
   6    2     352.261     -46.362     -13.397
   6    2     352.264     -46.362     -13.397
   7    3     345.908     -47.187     -13.516
   7    3     347.830     -46.934     -13.479
   7    2     347.844     -46.932     -13.479
   8    3     339.921     -47.993     -13.633
   8    3     344.064     -47.432     -13.551
   8    2     344.118     -47.425     -13.550





              THEORETICAL ROCKET PERFORMANCE ASSUMING EQUILIBRIUM

           COMPOSITION DURING EXPANSION FROM INFINITE AREA COMBUSTOR

 Pin =    50.0 PSIA
 CASE =                

             REACTANT                    WT FRACTION      ENERGY      TEMP
                                          (SEE NOTE)     KJ/KG-MOL      K  
 FUEL        H2O(L)                       1.0000000   -285841.390    298.000
 OXIDANT     H2O2(L)                      1.0000000   -187793.400    298.000

 O/F=    2.20000  %FUEL= 31.250000  R,EQ.RATIO= 0.650133  PHI,EQ.RATIO= 0.000000

                 CHAMBER   THROAT     EXIT     EXIT     EXIT     EXIT     EXIT     EXIT
 Pinf/P            1.0000   1.8497   1.8497   3.6831   4.8138   5.9547   7.1227   8.3184
 P, BAR            3.4474   1.8638   1.8638  0.93600  0.71614  0.57893  0.48400  0.41443
 T, K              504.28   433.92   433.92   365.51   357.69   352.26   347.84   344.12
 RHO, KG/CU M    1.7250 0 1.0838 0 1.0838 0 6.4617-1 5.1186-1 4.2464-1 3.6267-1 3.1626-1
 H, KJ/KG        -8753.97 -8868.12 -8868.12 -8976.98 -9015.07 -9044.44 -9068.60 -9089.12
 U, KJ/KG        -8953.82 -9040.08 -9040.08 -9121.83 -9154.98 -9180.78 -9202.06 -9220.17
 G, KJ/KG        -13653.3 -13083.8 -13083.8 -12528.1 -12490.2 -12466.9 -12448.1 -12432.4
 S, KJ/(KG)(K)     9.7155   9.7155   9.7155   9.7155   9.7155   9.7155   9.7155   9.7155

 M, (1/n)          20.980   20.980   20.980   20.980   21.257   21.483   21.672   21.834
 MW, MOL WT        20.980   20.980   20.980   20.980   20.980   20.980   20.980   20.980
 (dLV/dLP)t      -1.00000 -1.00000 -1.00000 -1.00000 -4.65508 -4.60603 -4.56591 -4.53199
 (dLV/dLT)p        1.0000   1.0000   1.0000   1.0000  52.0337  52.4027  52.7038  52.9578
 Cp, KJ/(KG)(K)    1.6393   1.6059   1.6059   1.5780 280.3143 285.2042 289.2523 292.7099
 GAMMAs            1.3188   1.3276   1.3276   1.3354   1.1402   1.1369   1.1342   1.1320
 SON VEL,M/SEC      513.4    477.8    477.8    439.8    399.4    393.7    389.1    385.1
 MACH NUMBER        0.000    1.000    1.000    1.518    1.809    1.936    2.039    2.126

 TRANSPORT PROPERTIES (GASES ONLY)
   CONDUCTIVITY IN UNITS OF MILLIWATTS/(CM)(K)

 VISC,MILLIPOISE  0.22304  0.19313  0.19313  0.16438  0.16167  0.15986  0.15839  0.15716

  WITH EQUILIBRIUM REACTIONS

 Cp, KJ/(KG)(K)    1.6393   1.6059   1.6059   1.5780   1.5718   1.5671   1.5633   1.5600
 CONDUCTIVITY      0.3915   0.3297   0.3297   0.2765   0.2714   0.2680   0.2652   0.2630
 PRANDTL NUMBER    0.9339   0.9407   0.9407   0.9381   0.9363   0.9349   0.9335   0.9323

  WITH FROZEN REACTIONS

 Cp, KJ/(KG)(K)    1.6393   1.6059   1.6059   1.5780   1.5718   1.5671   1.5633   1.5600
 CONDUCTIVITY      0.3915   0.3297   0.3297   0.2765   0.2714   0.2680   0.2652   0.2630
 PRANDTL NUMBER    0.9339   0.9407   0.9407   0.9381   0.9363   0.9349   0.9335   0.9323

 PERFORMANCE PARAMETERS

 Ae/At                      1.0000   1.0000   1.2000   1.4000   1.6000   1.8000   2.0000
 CSTAR, M/SEC                665.7    665.7    665.7    665.7    665.7    665.7    665.7
 CF                         0.7177   0.7177   1.0032   1.0855   1.1450   1.1916   1.2299
 Ivac, M/SEC                 837.7    837.7    884.7    916.2    941.1    961.5    978.8
 Isp, M/SEC                  477.8    477.8    667.8    722.6    762.2    793.3    818.7


 MOLE FRACTIONS

 H2O              0.78798  0.78798  0.78798  0.78798  0.77496  0.76456  0.75606  0.74886
 *O2              0.21202  0.21202  0.21202  0.21202  0.21202  0.21202  0.21202  0.21202
 H2O(L)           0.00000  0.00000  0.00000  0.00000  0.01301  0.02341  0.03192  0.03911

  * THERMODYNAMIC PROPERTIES FITTED TO 20000.K

    PRODUCTS WHICH WERE CONSIDERED BUT WHOSE MOLE FRACTIONS
    WERE LESS THAN 5.000000E-06 FOR ALL ASSIGNED CONDITIONS

 *H              HO2             *H2             H2O2            *O             
 *OH             O3              H2O(cr)        

 NOTE. WEIGHT FRACTION OF FUEL IN TOTAL FUELS AND OF OXIDANT IN TOTAL OXIDANTS





           THEORETICAL ROCKET PERFORMANCE ASSUMING FROZEN COMPOSITION

 Pin =    50.0 PSIA
 CASE =                

             REACTANT                    WT FRACTION      ENERGY      TEMP
                                          (SEE NOTE)     KJ/KG-MOL      K  
 FUEL        H2O(L)                       1.0000000   -285841.390    298.000
 OXIDANT     H2O2(L)                      1.0000000   -187793.400    298.000

 O/F=    2.20000  %FUEL= 31.250000  R,EQ.RATIO= 0.650133  PHI,EQ.RATIO= 0.000000

                 CHAMBER   THROAT     EXIT     EXIT     EXIT     EXIT     EXIT     EXIT
 Pinf/P            1.0000   1.8497   1.8497   3.6831   5.1314   6.6314   8.2054   9.8562
 P, BAR            3.4474   1.8638   1.8638  0.93600  0.67181  0.51985  0.42013  0.34977
 T, K              504.28   433.92   433.92   365.51   336.21   315.08   298.49   284.88
 RHO, KG/CU M    1.7250 0 1.0838 0 1.0838 0 6.4617-1 5.0420-1 4.1633-1 3.5517-1 3.0980-1
 H, KJ/KG        -8753.97 -8868.12 -8868.12 -8976.98 -9023.07 -9056.15 -9082.04 -9103.22
 U, KJ/KG        -8953.82 -9040.08 -9040.08 -9121.83 -9156.31 -9181.02 -9200.33 -9216.12
 G, KJ/KG        -13653.3 -13083.8 -13083.8 -12528.1 -12289.5 -12117.3 -11982.0 -11871.0
 S, KJ/(KG)(K)     9.7155   9.7155   9.7155   9.7155   9.7155   9.7155   9.7155   9.7155

 M, (1/n)          20.980   20.980   20.980   20.980   20.980   20.980   20.980   20.980
 MW, MOL WT        20.980   20.980   20.980   20.980   20.980   20.980   20.980   20.980
 Cp, KJ/(KG)(K)    1.6393   1.6059   1.6059   1.5780   1.5683   1.5624   1.5585   1.5558
 GAMMAs            1.3188   1.3276   1.3276   1.3354   1.3381   1.3399   1.3410   1.3418
 SON VEL,M/SEC      513.4    477.8    477.8    439.8    422.3    409.0    398.3    389.2
 MACH NUMBER        0.000    1.000    1.000    1.518    1.737    1.901    2.034    2.147

 TRANSPORT PROPERTIES (GASES ONLY)
   CONDUCTIVITY IN UNITS OF MILLIWATTS/(CM)(K)

 VISC,MILLIPOISE  0.22304  0.19313  0.19313  0.16438  0.15243  0.14407  0.13771  0.13269

  WITH FROZEN REACTIONS

 Cp, KJ/(KG)(K)    1.6393   1.6059   1.6059   1.5780   1.5683   1.5624   1.5585   1.5558
 CONDUCTIVITY      0.3915   0.3297   0.3297   0.2765   0.2567   0.2440   0.2352   0.2290
 PRANDTL NUMBER    0.9339   0.9407   0.9407   0.9381   0.9312   0.9225   0.9125   0.9016

 PERFORMANCE PARAMETERS

 Ae/At                      1.0000   1.0000   1.2000   1.4000   1.6000   1.8000   2.0000
 CSTAR, M/SEC                665.7    665.7    665.7    665.7    665.7    665.7    665.7
 CF                         0.7177   0.7177   1.0032   1.1020   1.1678   1.2168   1.2555
 Ivac, M/SEC                 837.7    837.7    884.7    915.2    938.0    956.1    970.9
 Isp, M/SEC                  477.8    477.8    667.8    733.6    777.4    810.0    835.8

 MOLE FRACTIONS

 H2O             0.78798   *O2             0.21202

  * THERMODYNAMIC PROPERTIES FITTED TO 20000.K

    PRODUCTS WHICH WERE CONSIDERED BUT WHOSE MOLE FRACTIONS
    WERE LESS THAN 5.000000E-06 FOR ALL ASSIGNED CONDITIONS

 *H              HO2             *H2             H2O2            *O             
 *OH             O3              H2O(cr)        

 NOTE. WEIGHT FRACTION OF FUEL IN TOTAL FUELS AND OF OXIDANT IN TOTAL OXIDANTS






 O/F =   2.400000

                       EFFECTIVE FUEL     EFFECTIVE OXIDANT        MIXTURE
 ENTHALPY                  h(2)/R              h(1)/R               h0/R
 (KG-MOL)(K)/KG       -0.19083035E+04     -0.66401406E+03     -0.10299815E+04

 KG-FORM.WT./KG             bi(2)               bi(1)               b0i
  *H                   0.11101687E+00      0.58798142E-01      0.74156592E-01
  *O                   0.55508435E-01      0.58798142E-01      0.57830581E-01

 POINT ITN      T            H           O 
   1    3     550.449     -31.447     -13.215
 Pinf/Pt = 1.840457
   2    3     475.085     -35.720     -13.409
 Pinf/Pt = 1.846886
   2    2     474.681     -35.746     -13.410
   3    1     474.681     -35.746     -13.410
   4    3     406.997     -40.940     -13.633
   4    2     400.458     -41.535     -13.658
   4    2     400.611     -41.521     -13.657
   5    3     375.814     -43.963     -13.759
   5    2     368.640     -44.731     -13.790
   5    2     368.745     -44.720     -13.790
   6    2     351.968     -46.637     -13.868
   6    2     345.645     -47.407     -13.899
   6    2     345.703     -47.400     -13.899
   7    2     332.554     -49.096     -13.967
   7    2     327.556     -49.777     -13.995
   7    1     327.586     -49.773     -13.995
   8    2     312.014     -52.033     -14.085
 ADD  H2O(L)         
   8    2     320.630     -50.785     -14.084
   8    2     321.336     -50.676     -14.068
   8    1     321.337     -50.676     -14.068





              THEORETICAL ROCKET PERFORMANCE ASSUMING EQUILIBRIUM

           COMPOSITION DURING EXPANSION FROM INFINITE AREA COMBUSTOR

 Pin =    20.0 PSIA
 CASE =                

             REACTANT                    WT FRACTION      ENERGY      TEMP
                                          (SEE NOTE)     KJ/KG-MOL      K  
 FUEL        H2O(L)                       1.0000000   -285841.390    298.000
 OXIDANT     H2O2(L)                      1.0000000   -187793.400    298.000

 O/F=    2.40000  %FUEL= 29.411765  R,EQ.RATIO= 0.641154  PHI,EQ.RATIO= 0.000000

                 CHAMBER   THROAT     EXIT     EXIT     EXIT     EXIT     EXIT     EXIT
 Pinf/P            1.0000   1.8469   1.8469   3.6730   5.1154   6.6093   8.1771   9.5662
 P, BAR            1.3789  0.74663  0.74663  0.37543  0.26957  0.20864  0.16863  0.14415
 T, K              550.45   474.68   474.68   400.61   368.74   345.70   327.59   321.34
 RHO, KG/CU M    6.3492-1 3.9865-1 3.9865-1 2.3752-1 1.8528-1 1.5296-1 1.3047-1 1.1427-1
 H, KJ/KG        -8563.79 -8687.67 -8687.67 -8806.14 -8856.39 -8892.49 -8920.76 -8940.75
 U, KJ/KG        -8780.98 -8874.96 -8874.96 -8964.21 -9001.88 -9028.89 -9050.01 -9066.90
 G, KJ/KG        -14170.6 -13522.8 -13522.8 -12886.7 -12612.4 -12413.8 -12257.5 -12213.9
 S, KJ/(KG)(K)    10.1860  10.1860  10.1860  10.1860  10.1860  10.1860  10.1860  10.1860

 M, (1/n)          21.073   21.073   21.073   21.073   21.073   21.073   21.073   21.179
 MW, MOL WT        21.073   21.073   21.073   21.073   21.073   21.073   21.073   21.073
 (dLV/dLP)t      -1.00000 -1.00000 -1.00000 -1.00000 -1.00000 -1.00000 -1.00000 -4.55045
 (dLV/dLT)p        1.0000   1.0000   1.0000   1.0000   1.0000   1.0000   1.0000  58.1913
 Cp, KJ/(KG)(K)    1.6541   1.6164   1.6164   1.5832   1.5709   1.5630   1.5575 363.2277
 GAMMAs            1.3133   1.3229   1.3229   1.3319   1.3354   1.3377   1.3393   1.1228
 SON VEL,M/SEC      534.1    497.8    497.8    458.8    440.8    427.2    416.1    376.4
 MACH NUMBER        0.000    1.000    1.000    1.517    1.735    1.898    2.031    2.307

 TRANSPORT PROPERTIES (GASES ONLY)
   CONDUCTIVITY IN UNITS OF MILLIWATTS/(CM)(K)

 VISC,MILLIPOISE  0.24389  0.21178  0.21178  0.18031  0.16695  0.15746  0.15014  0.14785

  WITH EQUILIBRIUM REACTIONS

 Cp, KJ/(KG)(K)    1.6541   1.6164   1.6164   1.5832   1.5709   1.5630   1.5575   1.5545
 CONDUCTIVITY      0.4356   0.3656   0.3656   0.3037   0.2797   0.2638   0.2522   0.2486
 PRANDTL NUMBER    0.9260   0.9362   0.9362   0.9400   0.9376   0.9330   0.9272   0.9244

  WITH FROZEN REACTIONS

 Cp, KJ/(KG)(K)    1.6541   1.6164   1.6164   1.5832   1.5709   1.5630   1.5575   1.5545
 CONDUCTIVITY      0.4356   0.3656   0.3656   0.3037   0.2797   0.2638   0.2522   0.2486
 PRANDTL NUMBER    0.9260   0.9362   0.9362   0.9400   0.9376   0.9330   0.9272   0.9244

 PERFORMANCE PARAMETERS

 Ae/At                      1.0000   1.0000   1.2000   1.4000   1.6000   1.8000   2.0000
 CSTAR, M/SEC                694.9    694.9    694.9    694.9    694.9    694.9    694.9
 CF                         0.7163   0.7163   1.0018   1.1008   1.1668   1.2159   1.2495
 Ivac, M/SEC                 874.0    874.0    923.2    955.2    979.0    997.9   1013.6
 Isp, M/SEC                  497.8    497.8    696.2    765.0    810.8    844.9    868.3


 MOLE FRACTIONS

 H2O              0.78135  0.78135  0.78135  0.78135  0.78135  0.78135  0.78135  0.77632
 *O2              0.21865  0.21865  0.21865  0.21865  0.21865  0.21865  0.21865  0.21865
 H2O(L)           0.00000  0.00000  0.00000  0.00000  0.00000  0.00000  0.00000  0.00502

  * THERMODYNAMIC PROPERTIES FITTED TO 20000.K

    PRODUCTS WHICH WERE CONSIDERED BUT WHOSE MOLE FRACTIONS
    WERE LESS THAN 5.000000E-06 FOR ALL ASSIGNED CONDITIONS

 *H              HO2             *H2             H2O2            *O             
 *OH             O3              H2O(cr)        

 NOTE. WEIGHT FRACTION OF FUEL IN TOTAL FUELS AND OF OXIDANT IN TOTAL OXIDANTS





           THEORETICAL ROCKET PERFORMANCE ASSUMING FROZEN COMPOSITION

 Pin =    20.0 PSIA
 CASE =                

             REACTANT                    WT FRACTION      ENERGY      TEMP
                                          (SEE NOTE)     KJ/KG-MOL      K  
 FUEL        H2O(L)                       1.0000000   -285841.390    298.000
 OXIDANT     H2O2(L)                      1.0000000   -187793.400    298.000

 O/F=    2.40000  %FUEL= 29.411765  R,EQ.RATIO= 0.641154  PHI,EQ.RATIO= 0.000000

                 CHAMBER   THROAT     EXIT     EXIT     EXIT     EXIT     EXIT     EXIT
 Pinf/P            1.0000   1.8469   1.8469   3.6730   5.1154   6.6093   8.1771   9.8218
 P, BAR            1.3789  0.74663  0.74663  0.37543  0.26957  0.20864  0.16863  0.14040
 T, K              550.45   474.68   474.68   400.61   368.74   345.70   327.59   312.71
 RHO, KG/CU M    6.3492-1 3.9865-1 3.9865-1 2.3752-1 1.8528-1 1.5296-1 1.3047-1 1.1379-1
 H, KJ/KG        -8563.79 -8687.67 -8687.67 -8806.14 -8856.39 -8892.49 -8920.76 -8943.91
 U, KJ/KG        -8780.98 -8874.96 -8874.96 -8964.21 -9001.88 -9028.89 -9050.01 -9067.29
 G, KJ/KG        -14170.6 -13522.8 -13522.8 -12886.7 -12612.4 -12413.8 -12257.5 -12129.1
 S, KJ/(KG)(K)    10.1860  10.1860  10.1860  10.1860  10.1860  10.1860  10.1860  10.1860

 M, (1/n)          21.073   21.073   21.073   21.073   21.073   21.073   21.073   21.073
 MW, MOL WT        21.073   21.073   21.073   21.073   21.073   21.073   21.073   21.073
 Cp, KJ/(KG)(K)    1.6541   1.6164   1.6164   1.5832   1.5709   1.5630   1.5575   1.5536
 GAMMAs            1.3133   1.3229   1.3229   1.3319   1.3354   1.3377   1.3393   1.3404
 SON VEL,M/SEC      534.1    497.8    497.8    458.8    440.8    427.2    416.1    406.7
 MACH NUMBER        0.000    1.000    1.000    1.517    1.735    1.898    2.031    2.144

 TRANSPORT PROPERTIES (GASES ONLY)
   CONDUCTIVITY IN UNITS OF MILLIWATTS/(CM)(K)

 VISC,MILLIPOISE  0.24389  0.21178  0.21178  0.18031  0.16695  0.15746  0.15014  0.14427

  WITH FROZEN REACTIONS

 Cp, KJ/(KG)(K)    1.6541   1.6164   1.6164   1.5832   1.5709   1.5630   1.5575   1.5536
 CONDUCTIVITY      0.4356   0.3656   0.3656   0.3037   0.2797   0.2638   0.2522   0.2435
 PRANDTL NUMBER    0.9260   0.9362   0.9362   0.9400   0.9376   0.9330   0.9272   0.9204

 PERFORMANCE PARAMETERS

 Ae/At                      1.0000   1.0000   1.2000   1.4000   1.6000   1.8000   2.0000
 CSTAR, M/SEC                694.9    694.9    694.9    694.9    694.9    694.9    694.9
 CF                         0.7163   0.7163   1.0018   1.1008   1.1668   1.2159   1.2547
 Ivac, M/SEC                 874.0    874.0    923.2    955.2    979.0    997.9   1013.4
 Isp, M/SEC                  497.8    497.8    696.2    765.0    810.8    844.9    871.9

 MOLE FRACTIONS

 H2O             0.78135   *O2             0.21865

  * THERMODYNAMIC PROPERTIES FITTED TO 20000.K

    PRODUCTS WHICH WERE CONSIDERED BUT WHOSE MOLE FRACTIONS
    WERE LESS THAN 5.000000E-06 FOR ALL ASSIGNED CONDITIONS

 *H              HO2             *H2             H2O2            *O             
 *OH             O3              H2O(cr)        

 NOTE. WEIGHT FRACTION OF FUEL IN TOTAL FUELS AND OF OXIDANT IN TOTAL OXIDANTS






 POINT ITN      T            H           O 
   1    1     550.449     -31.346     -13.012
 Pinf/Pt = 1.840457
   2    3     475.085     -35.618     -13.206
 Pinf/Pt = 1.846886
   2    2     474.681     -35.645     -13.207
   3    1     474.681     -35.645     -13.207
   4    3     406.997     -40.839     -13.430
   4    2     400.458     -41.434     -13.455
   4    2     400.611     -41.420     -13.455
   5    3     375.814     -43.862     -13.556
[...]





           THEORETICAL ROCKET PERFORMANCE ASSUMING FROZEN COMPOSITION

 Pin =    30.0 PSIA
 CASE =                

             REACTANT                    WT FRACTION      ENERGY      TEMP
                                          (SEE NOTE)     KJ/KG-MOL      K  
 FUEL        H2O(L)                       1.0000000   -285841.390    298.000
 OXIDANT     H2O2(L)                      1.0000000   -187793.400    298.000

 O/F=    3.00000  %FUEL= 25.000000  R,EQ.RATIO= 0.619680  PHI,EQ.RATIO= 0.000000

                 CHAMBER   THROAT     EXIT     EXIT     EXIT     EXIT     EXIT     EXIT
 Pinf/P            1.0000   1.8399   1.8399   3.6462   5.0713   6.5470   8.0955   9.7201
 P, BAR            2.0684   1.1242   1.1242  0.56728  0.40786  0.31593  0.25550  0.21280
 T, K              660.54   572.64   572.64   485.74   448.00   420.56   398.89   381.04
 RHO, KG/CU M    8.0215-1 5.0289-1 5.0289-1 2.9917-1 2.3322-1 1.9244-1 1.6408-1 1.4306-1
 H, KJ/KG        -8107.37 -8253.93 -8253.93 -8394.95 -8455.06 -8498.34 -8532.29 -8560.13
 U, KJ/KG        -8365.22 -8477.47 -8477.47 -8584.57 -8629.94 -8662.52 -8688.01 -8708.88
 G, KJ/KG        -14871.7 -14118.1 -14118.1 -13369.2 -13042.8 -12805.1 -12617.2 -12462.2
 S, KJ/(KG)(K)    10.2406  10.2406  10.2406  10.2406  10.2406  10.2406  10.2406  10.2406

 M, (1/n)          21.299   21.299   21.299   21.299   21.299   21.299   21.299   21.299
 MW, MOL WT        21.299   21.299   21.299   21.299   21.299   21.299   21.299   21.299
 Cp, KJ/(KG)(K)    1.6903   1.6447   1.6447   1.6014   1.5837   1.5716   1.5626   1.5556
 GAMMAs            1.3003   1.3112   1.3112   1.3224   1.3271   1.3305   1.3330   1.3350
 SON VEL,M/SEC      579.0    541.4    541.4    500.7    481.8    467.4    455.6    445.6
 MACH NUMBER        0.000    1.000    1.000    1.515    1.731    1.892    2.023    2.135

 TRANSPORT PROPERTIES (GASES ONLY)
   CONDUCTIVITY IN UNITS OF MILLIWATTS/(CM)(K)

 VISC,MILLIPOISE  0.29265  0.25641  0.25641  0.21967  0.20355  0.19183  0.18261  0.17506

  WITH FROZEN REACTIONS

 Cp, KJ/(KG)(K)    1.6903   1.6447   1.6447   1.6014   1.5837   1.5716   1.5626   1.5556
 CONDUCTIVITY      0.5465   0.4586   0.4586   0.3775   0.3446   0.3218   0.3045   0.2909
 PRANDTL NUMBER    0.9051   0.9195   0.9195   0.9319   0.9356   0.9370   0.9370   0.9360

 PERFORMANCE PARAMETERS

 Ae/At                      1.0000   1.0000   1.2000   1.4000   1.6000   1.8000   2.0000
 CSTAR, M/SEC                759.7    759.7    759.7    759.7    759.7    759.7    759.7
 CF                         0.7127   0.7127   0.9983   1.0977   1.1640   1.2135   1.2526
 Ivac, M/SEC                 954.3    954.3   1008.4   1043.6   1069.9   1090.8   1107.9
 Isp, M/SEC                  541.4    541.4    758.4    833.9    884.3    921.9    951.6

 MOLE FRACTIONS

 H2O             0.76519   *O2             0.23481

  * THERMODYNAMIC PROPERTIES FITTED TO 20000.K

    PRODUCTS WHICH WERE CONSIDERED BUT WHOSE MOLE FRACTIONS
    WERE LESS THAN 5.000000E-06 FOR ALL ASSIGNED CONDITIONS

 *H              HO2             *H2             H2O2            *O             
 *OH             O3              H2O(cr)         H2O(L)         

 NOTE. WEIGHT FRACTION OF FUEL IN TOTAL FUELS AND OF OXIDANT IN TOTAL OXIDANTS






 POINT ITN      T            H           O 
   1    1     660.541     -27.007     -13.002
 Pinf/Pt = 1.832607
   2    3     573.185     -30.428     -13.170
 Pinf/Pt = 1.839869
   2    2     572.647     -30.452     -13.171
 Pinf/Pt = 1.839913
   2    1     572.644     -30.452     -13.171
   3    1     572.644     -30.452     -13.171
   4    3     492.886     -34.641     -13.364
   4    2     485.579     -35.094     -13.384
   4    2     485.740     -35.084     -13.383
   5    3     455.876     -37.083     -13.471
   5    2     447.889     -37.663     -13.496
   5    2     447.998     -37.655     -13.496
   6    3     427.452     -39.245     -13.564
   6    2     420.502     -39.819     -13.588
   6    2     420.561     -39.814     -13.588
   7    2     404.228     -41.238     -13.648
   7    2     398.867     -41.731     -13.668
   7    1     398.895     -41.729     -13.668
   8    3     380.330     -43.543     -13.744
   8    2     381.040     -43.470     -13.741





              THEORETICAL ROCKET PERFORMANCE ASSUMING EQUILIBRIUM

           COMPOSITION DURING EXPANSION FROM INFINITE AREA COMBUSTOR

 Pin =    40.0 PSIA
 CASE =                

             REACTANT                    WT FRACTION      ENERGY      TEMP
                                          (SEE NOTE)     KJ/KG-MOL      K  
 FUEL        H2O(L)                       1.0000000   -285841.390    298.000
 OXIDANT     H2O2(L)                      1.0000000   -187793.400    298.000

 O/F=    3.00000  %FUEL= 25.000000  R,EQ.RATIO= 0.619680  PHI,EQ.RATIO= 0.000000

                 CHAMBER   THROAT     EXIT     EXIT     EXIT     EXIT     EXIT     EXIT
 Pinf/P            1.0000   1.8399   1.8399   3.6462   5.0713   6.5470   8.0955   9.7201
 P, BAR            2.7579   1.4989   1.4989  0.75638  0.54382  0.42125  0.34067  0.28373
 T, K              660.54   572.64   572.64   485.74   448.00   420.56   398.89   381.04
 RHO, KG/CU M    1.0695 0 6.7052-1 6.7052-1 3.9889-1 3.1095-1 2.5658-1 2.1877-1 1.9075-1
 H, KJ/KG        -8107.37 -8253.93 -8253.93 -8394.95 -8455.06 -8498.34 -8532.29 -8560.13
 U, KJ/KG        -8365.22 -8477.47 -8477.47 -8584.57 -8629.94 -8662.52 -8688.01 -8708.88
 G, KJ/KG        -14797.5 -14053.8 -14053.8 -13314.7 -12992.5 -12757.9 -12572.4 -12419.4
 S, KJ/(KG)(K)    10.1283  10.1283  10.1283  10.1283  10.1283  10.1283  10.1283  10.1283

 M, (1/n)          21.299   21.299   21.299   21.299   21.299   21.299   21.299   21.299
 MW, MOL WT        21.299   21.299   21.299   21.299   21.299   21.299   21.299   21.299
 (dLV/dLP)t      -1.00000 -1.00000 -1.00000 -1.00000 -1.00000 -1.00000 -1.00000 -1.00000
 (dLV/dLT)p        1.0000   1.0000   1.0000   1.0000   1.0000   1.0000   1.0000   1.0000
 Cp, KJ/(KG)(K)    1.6903   1.6447   1.6447   1.6014   1.5837   1.5716   1.5626   1.5556
 GAMMAs            1.3003   1.3112   1.3112   1.3224   1.3271   1.3305   1.3330   1.3350
 SON VEL,M/SEC      579.0    541.4    541.4    500.7    481.8    467.4    455.6    445.6
 MACH NUMBER        0.000    1.000    1.000    1.515    1.731    1.892    2.023    2.135

 TRANSPORT PROPERTIES (GASES ONLY)
   CONDUCTIVITY IN UNITS OF MILLIWATTS/(CM)(K)

 VISC,MILLIPOISE  0.29265  0.25641  0.25641  0.21967  0.20355  0.19183  0.18261  0.17506

  WITH EQUILIBRIUM REACTIONS

 Cp, KJ/(KG)(K)    1.6903   1.6447   1.6447   1.6014   1.5837   1.5716   1.5626   1.5556
 CONDUCTIVITY      0.5465   0.4586   0.4586   0.3775   0.3446   0.3218   0.3045   0.2909
 PRANDTL NUMBER    0.9051   0.9195   0.9195   0.9319   0.9356   0.9370   0.9370   0.9360

  WITH FROZEN REACTIONS

 Cp, KJ/(KG)(K)    1.6903   1.6447   1.6447   1.6014   1.5837   1.5716   1.5626   1.5556
 CONDUCTIVITY      0.5465   0.4586   0.4586   0.3775   0.3446   0.3218   0.3045   0.2909
 PRANDTL NUMBER    0.9051   0.9195   0.9195   0.9319   0.9356   0.9370   0.9370   0.9360

 PERFORMANCE PARAMETERS

 Ae/At                      1.0000   1.0000   1.2000   1.4000   1.6000   1.8000   2.0000
 CSTAR, M/SEC                759.7    759.7    759.7    759.7    759.7    759.7    759.7
 CF                         0.7127   0.7127   0.9983   1.0977   1.1640   1.2135   1.2526
 Ivac, M/SEC                 954.3    954.3   1008.4   1043.6   1069.9   1090.8   1107.9
 Isp, M/SEC                  541.4    541.4    758.4    833.9    884.3    921.9    951.6


 MOLE FRACTIONS

 H2O              0.76519  0.76519  0.76519  0.76519  0.76519  0.76519  0.76519  0.76519
 *O2              0.23481  0.23481  0.23481  0.23481  0.23481  0.23481  0.23481  0.23481

  * THERMODYNAMIC PROPERTIES FITTED TO 20000.K

    PRODUCTS WHICH WERE CONSIDERED BUT WHOSE MOLE FRACTIONS
    WERE LESS THAN 5.000000E-06 FOR ALL ASSIGNED CONDITIONS

 *H              HO2             *H2             H2O2            *O             
 *OH             O3              H2O(cr)         H2O(L)         

 NOTE. WEIGHT FRACTION OF FUEL IN TOTAL FUELS AND OF OXIDANT IN TOTAL OXIDANTS





           THEORETICAL ROCKET PERFORMANCE ASSUMING FROZEN COMPOSITION

 Pin =    40.0 PSIA
 CASE =                

             REACTANT                    WT FRACTION      ENERGY      TEMP
                                          (SEE NOTE)     KJ/KG-MOL      K  
 FUEL        H2O(L)                       1.0000000   -285841.390    298.000
 OXIDANT     H2O2(L)                      1.0000000   -187793.400    298.000

 O/F=    3.00000  %FUEL= 25.000000  R,EQ.RATIO= 0.619680  PHI,EQ.RATIO= 0.000000

                 CHAMBER   THROAT     EXIT     EXIT     EXIT     EXIT     EXIT     EXIT
 Pinf/P            1.0000   1.8399   1.8399   3.6462   5.0713   6.5470   8.0955   9.7201
 P, BAR            2.7579   1.4989   1.4989  0.75638  0.54382  0.42125  0.34067  0.28373
 T, K              660.54   572.64   572.64   485.74   448.00   420.56   398.89   381.04
 RHO, KG/CU M    1.0695 0 6.7052-1 6.7052-1 3.9889-1 3.1095-1 2.5658-1 2.1877-1 1.9075-1
 H, KJ/KG        -8107.37 -8253.93 -8253.93 -8394.95 -8455.06 -8498.34 -8532.29 -8560.13
 U, KJ/KG        -8365.22 -8477.47 -8477.47 -8584.57 -8629.94 -8662.52 -8688.01 -8708.88
 G, KJ/KG        -14797.5 -14053.8 -14053.8 -13314.7 -12992.5 -12757.9 -12572.4 -12419.4
 S, KJ/(KG)(K)    10.1283  10.1283  10.1283  10.1283  10.1283  10.1283  10.1283  10.1283

 M, (1/n)          21.299   21.299   21.299   21.299   21.299   21.299   21.299   21.299
 MW, MOL WT        21.299   21.299   21.299   21.299   21.299   21.299   21.299   21.299
 Cp, KJ/(KG)(K)    1.6903   1.6447   1.6447   1.6014   1.5837   1.5716   1.5626   1.5556
 GAMMAs            1.3003   1.3112   1.3112   1.3224   1.3271   1.3305   1.3330   1.3350
 SON VEL,M/SEC      579.0    541.4    541.4    500.7    481.8    467.4    455.6    445.6
 MACH NUMBER        0.000    1.000    1.000    1.515    1.731    1.892    2.023    2.135

 TRANSPORT PROPERTIES (GASES ONLY)
   CONDUCTIVITY IN UNITS OF MILLIWATTS/(CM)(K)

 VISC,MILLIPOISE  0.29265  0.25641  0.25641  0.21967  0.20355  0.19183  0.18261  0.17506

  WITH FROZEN REACTIONS

 Cp, KJ/(KG)(K)    1.6903   1.6447   1.6447   1.6014   1.5837   1.5716   1.5626   1.5556
 CONDUCTIVITY      0.5465   0.4586   0.4586   0.3775   0.3446   0.3218   0.3045   0.2909
 PRANDTL NUMBER    0.9051   0.9195   0.9195   0.9319   0.9356   0.9370   0.9370   0.9360

 PERFORMANCE PARAMETERS

 Ae/At                      1.0000   1.0000   1.2000   1.4000   1.6000   1.8000   2.0000
 CSTAR, M/SEC                759.7    759.7    759.7    759.7    759.7    759.7    759.7
 CF                         0.7127   0.7127   0.9983   1.0977   1.1640   1.2135   1.2526
 Ivac, M/SEC                 954.3    954.3   1008.4   1043.6   1069.9   1090.8   1107.9
 Isp, M/SEC                  541.4    541.4    758.4    833.9    884.3    921.9    951.6

 MOLE FRACTIONS

 H2O             0.76519   *O2             0.23481

  * THERMODYNAMIC PROPERTIES FITTED TO 20000.K

    PRODUCTS WHICH WERE CONSIDERED BUT WHOSE MOLE FRACTIONS
    WERE LESS THAN 5.000000E-06 FOR ALL ASSIGNED CONDITIONS

 *H              HO2             *H2             H2O2            *O             
 *OH             O3              H2O(cr)         H2O(L)         

 NOTE. WEIGHT FRACTION OF FUEL IN TOTAL FUELS AND OF OXIDANT IN TOTAL OXIDANTS






 POINT ITN      T            H           O 
   1    1     660.541     -26.951     -12.891
 Pinf/Pt = 1.832607
   2    3     573.185     -30.372     -13.059
 Pinf/Pt = 1.839869
   2    2     572.647     -30.396     -13.060
 Pinf/Pt = 1.839913
   2    1     572.644     -30.397     -13.060
   3    1     572.644     -30.397     -13.060
   4    3     492.886     -34.586     -13.252
   4    2     485.579     -35.038     -13.272
   4    2     485.740     -35.028     -13.272
   5    3     455.876     -37.027     -13.359
   5    2     447.889     -37.607     -13.384
   5    2     447.998     -37.599     -13.384
   6    3     427.452     -39.190     -13.452
   6    2     420.502     -39.763     -13.477
   6    2     420.561     -39.758     -13.476
   7    2     404.228     -41.182     -13.536
   7    2     398.867     -41.675     -13.557
   7    1     398.895     -41.673     -13.557
   8    3     380.330     -43.487     -13.632
   8    2     381.040     -43.414     -13.629





              THEORETICAL ROCKET PERFORMANCE ASSUMING EQUILIBRIUM

           COMPOSITION DURING EXPANSION FROM INFINITE AREA COMBUSTOR

 Pin =    50.0 PSIA
 CASE =                

             REACTANT                    WT FRACTION      ENERGY      TEMP
                                          (SEE NOTE)     KJ/KG-MOL      K  
 FUEL        H2O(L)                       1.0000000   -285841.390    298.000
 OXIDANT     H2O2(L)                      1.0000000   -187793.400    298.000

 O/F=    3.00000  %FUEL= 25.000000  R,EQ.RATIO= 0.619680  PHI,EQ.RATIO= 0.000000

                 CHAMBER   THROAT     EXIT     EXIT     EXIT     EXIT     EXIT     EXIT
 Pinf/P            1.0000   1.8399   1.8399   3.6462   5.0713   6.5470   8.0955   9.7201
 P, BAR            3.4474   1.8737   1.8737  0.94547  0.67977  0.52656  0.42583  0.35466
 T, K              660.54   572.64   572.64   485.74   448.00   420.56   398.89   381.04
 RHO, KG/CU M    1.3369 0 8.3815-1 8.3815-1 4.9861-1 3.8869-1 3.2073-1 2.7346-1 2.3843-1
 H, KJ/KG        -8107.37 -8253.93 -8253.93 -8394.95 -8455.06 -8498.34 -8532.29 -8560.13
 U, KJ/KG        -8365.22 -8477.47 -8477.47 -8584.57 -8629.94 -8662.52 -8688.01 -8708.88
 G, KJ/KG        -14740.0 -14004.0 -14004.0 -13272.4 -12953.5 -12721.3 -12537.7 -12386.2
 S, KJ/(KG)(K)    10.0412  10.0412  10.0412  10.0412  10.0412  10.0412  10.0412  10.0412

 M, (1/n)          21.299   21.299   21.299   21.299   21.299   21.299   21.299   21.299
 MW, MOL WT        21.299   21.299   21.299   21.299   21.299   21.299   21.299   21.299
 (dLV/dLP)t      -1.00000 -1.00000 -1.00000 -1.00000 -1.00000 -1.00000 -1.00000 -1.00000
 (dLV/dLT)p        1.0000   1.0000   1.0000   1.0000   1.0000   1.0000   1.0000   1.0000
 Cp, KJ/(KG)(K)    1.6903   1.6447   1.6447   1.6014   1.5837   1.5716   1.5626   1.5556
 GAMMAs            1.3003   1.3112   1.3112   1.3224   1.3271   1.3305   1.3330   1.3350
 SON VEL,M/SEC      579.0    541.4    541.4    500.7    481.8    467.4    455.6    445.6
 MACH NUMBER        0.000    1.000    1.000    1.515    1.731    1.892    2.023    2.135

 TRANSPORT PROPERTIES (GASES ONLY)
   CONDUCTIVITY IN UNITS OF MILLIWATTS/(CM)(K)

 VISC,MILLIPOISE  0.29265  0.25641  0.25641  0.21967  0.20355  0.19183  0.18261  0.17506

  WITH EQUILIBRIUM REACTIONS

 Cp, KJ/(KG)(K)    1.6903   1.6447   1.6447   1.6014   1.5837   1.5716   1.5626   1.5556
 CONDUCTIVITY      0.5465   0.4586   0.4586   0.3775   0.3446   0.3218   0.3045   0.2909
 PRANDTL NUMBER    0.9051   0.9195   0.9195   0.9319   0.9356   0.9370   0.9370   0.9360

  WITH FROZEN REACTIONS

 Cp, KJ/(KG)(K)    1.6903   1.6447   1.6447   1.6014   1.5837   1.5716   1.5626   1.5556
 CONDUCTIVITY      0.5465   0.4586   0.4586   0.3775   0.3446   0.3218   0.3045   0.2909
 PRANDTL NUMBER    0.9051   0.9195   0.9195   0.9319   0.9356   0.9370   0.9370   0.9360

 PERFORMANCE PARAMETERS

 Ae/At                      1.0000   1.0000   1.2000   1.4000   1.6000   1.8000   2.0000
 CSTAR, M/SEC                759.7    759.7    759.7    759.7    759.7    759.7    759.7
 CF                         0.7127   0.7127   0.9983   1.0977   1.1640   1.2135   1.2526
 Ivac, M/SEC                 954.3    954.3   1008.4   1043.6   1069.9   1090.8   1107.9
 Isp, M/SEC                  541.4    541.4    758.4    833.9    884.3    921.9    951.6


 MOLE FRACTIONS

 H2O              0.76519  0.76519  0.76519  0.76519  0.76519  0.76519  0.76519  0.76519
 *O2              0.23481  0.23481  0.23481  0.23481  0.23481  0.23481  0.23481  0.23481

  * THERMODYNAMIC PROPERTIES FITTED TO 20000.K

    PRODUCTS WHICH WERE CONSIDERED BUT WHOSE MOLE FRACTIONS
    WERE LESS THAN 5.000000E-06 FOR ALL ASSIGNED CONDITIONS

 *H              HO2             *H2             H2O2            *O             
 *OH             O3              H2O(cr)         H2O(L)         

 NOTE. WEIGHT FRACTION OF FUEL IN TOTAL FUELS AND OF OXIDANT IN TOTAL OXIDANTS





           THEORETICAL ROCKET PERFORMANCE ASSUMING FROZEN COMPOSITION

 Pin =    50.0 PSIA
 CASE =                

             REACTANT                    WT FRACTION      ENERGY      TEMP
                                          (SEE NOTE)     KJ/KG-MOL      K  
 FUEL        H2O(L)                       1.0000000   -285841.390    298.000
 OXIDANT     H2O2(L)                      1.0000000   -187793.400    298.000

 O/F=    3.00000  %FUEL= 25.000000  R,EQ.RATIO= 0.619680  PHI,EQ.RATIO= 0.000000

                 CHAMBER   THROAT     EXIT     EXIT     EXIT     EXIT     EXIT     EXIT
 Pinf/P            1.0000   1.8399   1.8399   3.6462   5.0713   6.5470   8.0955   9.7201
 P, BAR            3.4474   1.8737   1.8737  0.94547  0.67977  0.52656  0.42583  0.35466
 T, K              660.54   572.64   572.64   485.74   448.00   420.56   398.89   381.04
 RHO, KG/CU M    1.3369 0 8.3815-1 8.3815-1 4.9861-1 3.8869-1 3.2073-1 2.7346-1 2.3843-1
 H, KJ/KG        -8107.37 -8253.93 -8253.93 -8394.95 -8455.06 -8498.34 -8532.29 -8560.13
 U, KJ/KG        -8365.22 -8477.47 -8477.47 -8584.57 -8629.94 -8662.52 -8688.01 -8708.88
 G, KJ/KG        -14740.0 -14004.0 -14004.0 -13272.4 -12953.5 -12721.3 -12537.7 -12386.2
 S, KJ/(KG)(K)    10.0412  10.0412  10.0412  10.0412  10.0412  10.0412  10.0412  10.0412

 M, (1/n)          21.299   21.299   21.299   21.299   21.299   21.299   21.299   21.299
 MW, MOL WT        21.299   21.299   21.299   21.299   21.299   21.299   21.299   21.299
 Cp, KJ/(KG)(K)    1.6903   1.6447   1.6447   1.6014   1.5837   1.5716   1.5626   1.5556
 GAMMAs            1.3003   1.3112   1.3112   1.3224   1.3271   1.3305   1.3330   1.3350
 SON VEL,M/SEC      579.0    541.4    541.4    500.7    481.8    467.4    455.6    445.6
 MACH NUMBER        0.000    1.000    1.000    1.515    1.731    1.892    2.023    2.135

 TRANSPORT PROPERTIES (GASES ONLY)
   CONDUCTIVITY IN UNITS OF MILLIWATTS/(CM)(K)

 VISC,MILLIPOISE  0.29265  0.25641  0.25641  0.21967  0.20355  0.19183  0.18261  0.17506

  WITH FROZEN REACTIONS

 Cp, KJ/(KG)(K)    1.6903   1.6447   1.6447   1.6014   1.5837   1.5716   1.5626   1.5556
 CONDUCTIVITY      0.5465   0.4586   0.4586   0.3775   0.3446   0.3218   0.3045   0.2909
 PRANDTL NUMBER    0.9051   0.9195   0.9195   0.9319   0.9356   0.9370   0.9370   0.9360

 PERFORMANCE PARAMETERS

 Ae/At                      1.0000   1.0000   1.2000   1.4000   1.6000   1.8000   2.0000
 CSTAR, M/SEC                759.7    759.7    759.7    759.7    759.7    759.7    759.7
 CF                         0.7127   0.7127   0.9983   1.0977   1.1640   1.2135   1.2526
 Ivac, M/SEC                 954.3    954.3   1008.4   1043.6   1069.9   1090.8   1107.9
 Isp, M/SEC                  541.4    541.4    758.4    833.9    884.3    921.9    951.6

 MOLE FRACTIONS

 H2O             0.76519   *O2             0.23481

  * THERMODYNAMIC PROPERTIES FITTED TO 20000.K

    PRODUCTS WHICH WERE CONSIDERED BUT WHOSE MOLE FRACTIONS
    WERE LESS THAN 5.000000E-06 FOR ALL ASSIGNED CONDITIONS

 *H              HO2             *H2             H2O2            *O             
 *OH             O3              H2O(cr)         H2O(L)         

 NOTE. WEIGHT FRACTION OF FUEL IN TOTAL FUELS AND OF OXIDANT IN TOTAL OXIDANTS



