
 *******************************************************************************

         NASA-GLENN CHEMICAL EQUILIBRIUM PROGRAM CEA2, MAY 21, 2004
                   BY  BONNIE MCBRIDE AND SANFORD GORDON
      REFS: NASA RP-1311, PART I, 1994 AND NASA RP-1311, PART II, 1996

 *******************************************************************************



 problem rocket eq fr
     p(psi) = 20, 30, 40, 50
     o/f = 4.4, 4.6, 4.8, 5
     sup = 1, 1.2, 1.4, 1.6, 1.8, 2
 reac
     fuel = H2O(L) t(K) = 298.000
     ox = H2O2(L) t(K) = 298.000
 outp trans
 end

 OPTIONS: TP=F  HP=F  SP=F  TV=F  UV=F  SV=F  DETN=F  SHOCK=F  REFL=F  INCD=F
 RKT=T  FROZ=T  EQL=T  IONS=F  SIUNIT=T  DEBUGF=F  SHKDBG=F  DETDBG=F  TRNSPT=T

 TRACE= 0.00E+00  S/R= 0.000000E+00  H/R= 0.000000E+00  U/R= 0.000000E+00

 Pc,BAR =     1.378946     2.068419     2.757892     3.447365

 Pc/P =

 SUBSONIC AREA RATIOS =

 SUPERSONIC AREA RATIOS =     1.0000     1.2000     1.4000     1.6000     1.8000
     2.0000

 NFZ=  1  Mdot/Ac= 0.000000E+00  Ac/At= 0.000000E+00

 WARNING!!  AMOUNT MISSING FOR REACTANT  1.
 PROGRAM SETS WEIGHT PERCENT = 100. (REACT)

 WARNING!!  AMOUNT MISSING FOR REACTANT  2.
 PROGRAM SETS WEIGHT PERCENT = 100. (REACT)

    REACTANT          WT.FRAC   (ENERGY/R),K   TEMP,K  DENSITY
        EXPLODED FORMULA
 F: H2O(L)           1.000000  -0.343786E+05   298.00  0.0000
          H  2.00000  O  1.00000
 O: H2O2(L)          1.000000  -0.225862E+05   298.00  0.0000
          H  2.00000  O  2.00000

  SPECIES BEING CONSIDERED IN THIS SYSTEM
 (CONDENSED PHASE MAY HAVE NAME LISTED SEVERAL TIMES)
  LAST thermo.inp UPDATE:    9/09/04

  g 6/97  *H               g 4/02  HO2              tpis78  *H2            
  g 8/89  H2O              g 6/99  H2O2             g 5/97  *O             
  g 4/02  *OH              tpis89  *O2              g 8/01  O3             
  g11/99  H2O(cr)          g 8/01  H2O(L)           g 8/01  H2O(L)         

 SPECIES WITH TRANSPORT PROPERTIES

        PURE SPECIES

  H                 H2                H2O               O               
  OH                O2              

     BINARY INTERACTIONS

     H               H2              
     H               O               
     H2              H2O             
     H2              O2              
     H2O             O2              
     O               O2              


 O/F =   4.400000

                       EFFECTIVE FUEL     EFFECTIVE OXIDANT        MIXTURE
 ENTHALPY                  h(2)/R              h(1)/R               h0/R
 (KG-MOL)(K)/KG       -0.19083035E+04     -0.66401406E+03     -0.89443802E+03

 KG-FORM.WT./KG             bi(2)               bi(1)               b0i
  *H                   0.11101687E+00      0.58798142E-01      0.68468277E-01
  *O                   0.55508435E-01      0.58798142E-01      0.58188937E-01

 POINT ITN      T            H           O 
   1   10     820.674     -23.080     -13.542
 Pinf/Pt = 1.822270
   2    3     717.356     -25.683     -13.687
 Pinf/Pt = 1.829971
   2    2     716.668     -25.703     -13.688
 Pinf/Pt = 1.830022
   2    1     716.663     -25.703     -13.688
   3    1     716.663     -25.703     -13.688
   4    3     620.402     -28.913     -13.852
   4    2     612.369     -29.227     -13.867
   4    2     612.529     -29.220     -13.867
   5    3     575.360     -30.784     -13.942
   5    2     566.715     -31.177     -13.960
   5    2     566.819     -31.172     -13.960
   6    3     540.583     -32.441     -14.019
   6    2     533.321     -32.814     -14.036
   6    1     533.373     -32.812     -14.036
   7    3     512.042     -33.969     -14.089
   7    2     506.802     -34.269     -14.102
   7    1     506.823     -34.268     -14.102
   8    3     483.845     -35.656     -14.164
   8    2     484.844     -35.593     -14.161





              THEORETICAL ROCKET PERFORMANCE ASSUMING EQUILIBRIUM

           COMPOSITION DURING EXPANSION FROM INFINITE AREA COMBUSTOR

 Pin =    20.0 PSIA
 CASE =                

             REACTANT                    WT FRACTION      ENERGY      TEMP
                                          (SEE NOTE)     KJ/KG-MOL      K  
 FUEL        H2O(L)                       1.0000000   -285841.390    298.000
 OXIDANT     H2O2(L)                      1.0000000   -187793.400    298.000

 O/F=    4.40000  %FUEL= 18.518519  R,EQ.RATIO= 0.588327  PHI,EQ.RATIO= 0.000000

                 CHAMBER   THROAT     EXIT     EXIT     EXIT     EXIT     EXIT     EXIT
 Pinf/P            1.0000   1.8300   1.8300   3.6064   5.0039   6.4489   7.9640   9.5525
 P, BAR            1.3789  0.75351  0.75351  0.38236  0.27558  0.21383  0.17315  0.14435
 T, K              820.67   716.66   716.66   612.53   566.82   533.37   506.82   484.84
 RHO, KG/CU M    4.3731-1 2.7365-1 2.7365-1 1.6247-1 1.2654-1 1.0434-1 8.8915-2 7.7489-2
 H, KJ/KG        -7436.81 -7615.09 -7615.09 -7788.03 -7862.20 -7915.81 -7957.97 -7992.62
 U, KJ/KG        -7752.14 -7890.45 -7890.45 -8023.38 -8079.99 -8120.75 -8152.71 -8178.91
 G, KJ/KG        -16159.6 -15232.4 -15232.4 -14298.5 -13886.8 -13584.9 -13344.9 -13145.9
 S, KJ/(KG)(K)    10.6288  10.6288  10.6288  10.6288  10.6288  10.6288  10.6288  10.6288

 M, (1/n)          21.640   21.640   21.640   21.640   21.640   21.640   21.640   21.640
 (dLV/dLP)t      -1.00000 -1.00000 -1.00000 -1.00000 -1.00000 -1.00000 -1.00000 -1.00000
 (dLV/dLT)p        1.0000   1.0000   1.0000   1.0000   1.0000   1.0000   1.0000   1.0000
 Cp, KJ/(KG)(K)    1.7405   1.6874   1.6874   1.6342   1.6111   1.5945   1.5816   1.5711
 GAMMAs            1.2833   1.2948   1.2948   1.3074   1.3132   1.3175   1.3209   1.3237
 SON VEL,M/SEC      636.1    597.1    597.1    554.7    534.8    519.6    507.2    496.6
 MACH NUMBER        0.000    1.000    1.000    1.511    1.725    1.884    2.013    2.123

 TRANSPORT PROPERTIES (GASES ONLY)
   CONDUCTIVITY IN UNITS OF MILLIWATTS/(CM)(K)

 VISC,MILLIPOISE  0.36006  0.31975  0.31975  0.27767  0.25868  0.24460  0.23333  0.22395

  WITH EQUILIBRIUM REACTIONS

 Cp, KJ/(KG)(K)    1.7405   1.6874   1.6874   1.6342   1.6111   1.5945   1.5816   1.5711
 CONDUCTIVITY      0.7159   0.6052   0.6052   0.4995   0.4552   0.4237   0.3993   0.3796
 PRANDTL NUMBER    0.8754   0.8915   0.8915   0.9084   0.9156   0.9206   0.9242   0.9269

  WITH FROZEN REACTIONS

 Cp, KJ/(KG)(K)    1.7405   1.6874   1.6874   1.6342   1.6111   1.5945   1.5816   1.5711
 CONDUCTIVITY      0.7159   0.6052   0.6052   0.4995   0.4552   0.4237   0.3993   0.3796
 PRANDTL NUMBER    0.8754   0.8915   0.8915   0.9084   0.9156   0.9206   0.9242   0.9269

 PERFORMANCE PARAMETERS

 Ae/At                      1.0000   1.0000   1.2000   1.4000   1.6000   1.8000   2.0000
 CSTAR, M/SEC                843.9    843.9    843.9    843.9    843.9    843.9    843.9
 CF                         0.7076   0.7076   0.9931   1.0930   1.1598   1.2098   1.2493
 Ivac, M/SEC                1058.3   1058.3   1118.9   1158.5   1188.2   1211.7   1231.0
 Isp, M/SEC                  597.1    597.1    838.1    922.4    978.8   1020.9   1054.3


 MOLE FRACTIONS

 H2O              0.74081  0.74081  0.74081  0.74081  0.74081  0.74081  0.74081  0.74081
 *O2              0.25919  0.25919  0.25919  0.25919  0.25919  0.25919  0.25919  0.25919

  * THERMODYNAMIC PROPERTIES FITTED TO 20000.K

    PRODUCTS WHICH WERE CONSIDERED BUT WHOSE MOLE FRACTIONS
    WERE LESS THAN 5.000000E-06 FOR ALL ASSIGNED CONDITIONS

 *H              HO2             *H2             H2O2            *O             
 *OH             O3              H2O(cr)         H2O(L)         

 NOTE. WEIGHT FRACTION OF FUEL IN TOTAL FUELS AND OF OXIDANT IN TOTAL OXIDANTS





           THEORETICAL ROCKET PERFORMANCE ASSUMING FROZEN COMPOSITION

 Pin =    20.0 PSIA
 CASE =                

             REACTANT                    WT FRACTION      ENERGY      TEMP
                                          (SEE NOTE)     KJ/KG-MOL      K  
 FUEL        H2O(L)                       1.0000000   -285841.390    298.000
 OXIDANT     H2O2(L)                      1.0000000   -187793.400    298.000

 O/F=    4.40000  %FUEL= 18.518519  R,EQ.RATIO= 0.588327  PHI,EQ.RATIO= 0.000000

                 CHAMBER   THROAT     EXIT     EXIT     EXIT     EXIT     EXIT     EXIT
 Pinf/P            1.0000   1.8300   1.8300   3.6064   5.0039   6.4489   7.9640   9.5525
 P, BAR            1.3789  0.75351  0.75351  0.38236  0.27558  0.21383  0.17315  0.14435
 T, K              820.67   716.66   716.66   612.53   566.82   533.37   506.82   484.84
 RHO, KG/CU M    4.3731-1 2.7365-1 2.7365-1 1.6247-1 1.2654-1 1.0434-1 8.8915-2 7.7489-2
 H, KJ/KG        -7436.81 -7615.09 -7615.09 -7788.03 -7862.20 -7915.81 -7957.97 -7992.62
 U, KJ/KG        -7752.14 -7890.45 -7890.45 -8023.38 -8079.99 -8120.75 -8152.71 -8178.91
 G, KJ/KG        -16159.6 -15232.4 -15232.4 -14298.5 -13886.8 -13584.9 -13344.9 -13145.9
 S, KJ/(KG)(K)    10.6288  10.6288  10.6288  10.6288  10.6288  10.6288  10.6288  10.6288

 M, (1/n)          21.640   21.640   21.640   21.640   21.640   21.640   21.640   21.640
 Cp, KJ/(KG)(K)    1.7405   1.6874   1.6874   1.6342   1.6111   1.5945   1.5816   1.5711
 GAMMAs            1.2833   1.2948   1.2948   1.3074   1.3132   1.3175   1.3209   1.3237
 SON VEL,M/SEC      636.1    597.1    597.1    554.7    534.8    519.6    507.2    496.6
 MACH NUMBER        0.000    1.000    1.000    1.511    1.725    1.884    2.013    2.123

 TRANSPORT PROPERTIES (GASES ONLY)
   CONDUCTIVITY IN UNITS OF MILLIWATTS/(CM)(K)

 VISC,MILLIPOISE  0.36006  0.31975  0.31975  0.27767  0.25868  0.24460  0.23333  0.22395

  WITH FROZEN REACTIONS

 Cp, KJ/(KG)(K)    1.7405   1.6874   1.6874   1.6342   1.6111   1.5945   1.5816   1.5711
 CONDUCTIVITY      0.7159   0.6052   0.6052   0.4995   0.4552   0.4237   0.3993   0.3796
 PRANDTL NUMBER    0.8754   0.8915   0.8915   0.9084   0.9156   0.9206   0.9242   0.9269

 PERFORMANCE PARAMETERS

 Ae/At                      1.0000   1.0000   1.2000   1.4000   1.6000   1.8000   2.0000
 CSTAR, M/SEC                843.9    843.9    843.9    843.9    843.9    843.9    843.9
 CF                         0.7076   0.7076   0.9931   1.0930   1.1598   1.2098   1.2493
 Ivac, M/SEC                1058.3   1058.3   1118.9   1158.5   1188.2   1211.7   1231.0
 Isp, M/SEC                  597.1    597.1    838.1    922.4    978.8   1020.9   1054.3

 MOLE FRACTIONS

 H2O             0.74081   *O2             0.25919

  * THERMODYNAMIC PROPERTIES FITTED TO 20000.K

    PRODUCTS WHICH WERE CONSIDERED BUT WHOSE MOLE FRACTIONS
    WERE LESS THAN 5.000000E-06 FOR ALL ASSIGNED CONDITIONS

 *H              HO2             *H2             H2O2            *O             
 *OH             O3              H2O(cr)         H2O(L)         

 NOTE. WEIGHT FRACTION OF FUEL IN TOTAL FUELS AND OF OXIDANT IN TOTAL OXIDANTS






 POINT ITN      T            H           O 
   1    1     820.674     -22.978     -13.340
 Pinf/Pt = 1.822270
   2    3     717.356     -25.581     -13.484
 Pinf/Pt = 1.829971
   2    2     716.668     -25.601     -13.485
 Pinf/Pt = 1.830022
   2    1     716.663     -25.601     -13.485
   3    1     716.663     -25.601     -13.485
   4    3     620.402     -28.812     -13.649
   4    2     612.369     -29.125     -13.664
   4    2     612.529     -29.119     -13.664
   5    3     575.360     -30.682     -13.739
   5    2     566.715     -31.075     -13.757
   5    2     566.819     -31.070     -13.757
   6    3     540.583     -32.340     -13.816
   6    2     533.321     -32.713     -13.833
   6    1     533.373     -32.710     -13.833
   7    3     512.042     -33.868     -13.886
   7    2     506.802     -34.167     -13.899
   7    1     506.823     -34.166     -13.899
   8    3     483.845     -35.555     -13.961
   8    2     484.844     -35.492     -13.958





              THEORETICAL ROCKET PERFORMANCE ASSUMING EQUILIBRIUM

           COMPOSITION DURING EXPANSION FROM INFINITE AREA COMBUSTOR

 Pin =    30.0 PSIA
 CASE =                

             REACTANT                    WT FRACTION      ENERGY      TEMP
                                          (SEE NOTE)     KJ/KG-MOL      K  
 FUEL        H2O(L)                       1.0000000   -285841.390    298.000
 OXIDANT     H2O2(L)                      1.0000000   -187793.400    298.000

 O/F=    4.40000  %FUEL= 18.518519  R,EQ.RATIO= 0.588327  PHI,EQ.RATIO= 0.000000

                 CHAMBER   THROAT     EXIT     EXIT     EXIT     EXIT     EXIT     EXIT
 Pinf/P            1.0000   1.8300   1.8300   3.6064   5.0039   6.4489   7.9640   9.5525
 P, BAR            2.0684   1.1303   1.1303  0.57355  0.41336  0.32074  0.25972  0.21653
 T, K              820.67   716.66   716.66   612.53   566.82   533.37   506.82   484.84
 RHO, KG/CU M    6.5597-1 4.1047-1 4.1047-1 2.4370-1 1.8980-1 1.5651-1 1.3337-1 1.1623-1
 H, KJ/KG        -7436.81 -7615.09 -7615.09 -7788.03 -7862.20 -7915.81 -7957.97 -7992.62
 U, KJ/KG        -7752.14 -7890.45 -7890.45 -8023.38 -8079.99 -8120.75 -8152.71 -8178.91
 G, KJ/KG        -16031.7 -15120.7 -15120.7 -14203.1 -13798.5 -13501.8 -13265.9 -13070.4
 S, KJ/(KG)(K)    10.4730  10.4730  10.4730  10.4730  10.4730  10.4730  10.4730  10.4730

 M, (1/n)          21.640   21.640   21.640   21.640   21.640   21.640   21.640   21.640
 (dLV/dLP)t      -1.00000 -1.00000 -1.00000 -1.00000 -1.00000 -1.00000 -1.00000 -1.00000
 (dLV/dLT)p        1.0000   1.0000   1.0000   1.0000   1.0000   1.0000   1.0000   1.0000
 Cp, KJ/(KG)(K)    1.7405   1.6874   1.6874   1.6342   1.6111   1.5945   1.5816   1.5711
 GAMMAs            1.2833   1.2948   1.2948   1.3074   1.3132   1.3175   1.3209   1.3237
 SON VEL,M/SEC      636.1    597.1    597.1    554.7    534.8    519.6    507.2    496.6
 MACH NUMBER        0.000    1.000    1.000    1.511    1.725    1.884    2.013    2.123

 TRANSPORT PROPERTIES (GASES ONLY)
   CONDUCTIVITY IN UNITS OF MILLIWATTS/(CM)(K)

 VISC,MILLIPOISE  0.36006  0.31975  0.31975  0.27767  0.25868  0.24460  0.23333  0.22395

  WITH EQUILIBRIUM REACTIONS

 Cp, KJ/(KG)(K)    1.7405   1.6874   1.6874   1.6342   1.6111   1.5945   1.5816   1.5711
 CONDUCTIVITY      0.7159   0.6052   0.6052   0.4995   0.4552   0.4237   0.3993   0.3796
 PRANDTL NUMBER    0.8754   0.8915   0.8915   0.9084   0.9156   0.9206   0.9242   0.9269

  WITH FROZEN REACTIONS

 Cp, KJ/(KG)(K)    1.7405   1.6874   1.6874   1.6342   1.6111   1.5945   1.5816   1.5711
 CONDUCTIVITY      0.7159   0.6052   0.6052   0.4995   0.4552   0.4237   0.3993   0.3796
 PRANDTL NUMBER    0.8754   0.8915   0.8915   0.9084   0.9156   0.9206   0.9242   0.9269

 PERFORMANCE PARAMETERS

 Ae/At                      1.0000   1.0000   1.2000   1.4000   1.6000   1.8000   2.0000
 CSTAR, M/SEC                843.9    843.9    843.9    843.9    843.9    843.9    843.9
 CF                         0.7076   0.7076   0.9931   1.0930   1.1598   1.2098   1.2493
 Ivac, M/SEC                1058.3   1058.3   1118.9   1158.5   1188.2   1211.7   1231.0
 Isp, M/SEC                  597.1    597.1    838.1    922.4    978.8   1020.9   1054.3


 MOLE FRACTIONS

 H2O              0.74081  0.74081  0.74081  0.74081  0.74081  0.74081  0.74081  0.74081
 *O2              0.25919  0.25919  0.25919  0.25919  0.25919  0.25919  0.25919  0.25919

  * THERMODYNAMIC PROPERTIES FITTED TO 20000.K

    PRODUCTS WHICH WERE CONSIDERED BUT WHOSE MOLE FRACTIONS
    WERE LESS THAN 5.000000E-06 FOR ALL ASSIGNED CONDITIONS

 *H              HO2             *H2             H2O2            *O             
 *OH             O3              H2O(cr)         H2O(L)         

 NOTE. WEIGHT FRACTION OF FUEL IN TOTAL FUELS AND OF OXIDANT IN TOTAL OXIDANTS





           THEORETICAL ROCKET PERFORMANCE ASSUMING FROZEN COMPOSITION

 Pin =    30.0 PSIA
 CASE =                

             REACTANT                    WT FRACTION      ENERGY      TEMP
                                          (SEE NOTE)     KJ/KG-MOL      K  
 FUEL        H2O(L)                       1.0000000   -285841.390    298.000
 OXIDANT     H2O2(L)                      1.0000000   -187793.400    298.000

 O/F=    4.40000  %FUEL= 18.518519  R,EQ.RATIO= 0.588327  PHI,EQ.RATIO= 0.000000

                 CHAMBER   THROAT     EXIT     EXIT     EXIT     EXIT     EXIT     EXIT
 Pinf/P            1.0000   1.8300   1.8300   3.6064   5.0039   6.4489   7.9640   9.5525
 P, BAR            2.0684   1.1303   1.1303  0.57355  0.41336  0.32074  0.25972  0.21653
 T, K              820.67   716.66   716.66   612.53   566.82   533.37   506.82   484.84
 RHO, KG/CU M    6.5597-1 4.1047-1 4.1047-1 2.4370-1 1.8980-1 1.5651-1 1.3337-1 1.1623-1
 H, KJ/KG        -7436.81 -7615.09 -7615.09 -7788.03 -7862.20 -7915.81 -7957.97 -7992.62
 U, KJ/KG        -7752.14 -7890.45 -7890.45 -8023.38 -8079.99 -8120.75 -8152.71 -8178.91
 G, KJ/KG        -16031.7 -15120.7 -15120.7 -14203.1 -13798.5 -13501.8 -13265.9 -13070.4
 S, KJ/(KG)(K)    10.4730  10.4730  10.4730  10.4730  10.4730  10.4730  10.4730  10.4730

 M, (1/n)          21.640   21.640   21.640   21.640   21.640   21.640   21.640   21.640
 Cp, KJ/(KG)(K)    1.7405   1.6874   1.6874   1.6342   1.6111   1.5945   1.5816   1.5711
 GAMMAs            1.2833   1.2948   1.2948   1.3074   1.3132   1.3175   1.3209   1.3237
 SON VEL,M/SEC      636.1    597.1    597.1    554.7    534.8    519.6    507.2    496.6
 MACH NUMBER        0.000    1.000    1.000    1.511    1.725    1.884    2.013    2.123

 TRANSPORT PROPERTIES (GASES ONLY)
   CONDUCTIVITY IN UNITS OF MILLIWATTS/(CM)(K)

 VISC,MILLIPOISE  0.36006  0.31975  0.31975  0.27767  0.25868  0.24460  0.23333  0.22395

  WITH FROZEN REACTIONS

 Cp, KJ/(KG)(K)    1.7405   1.6874   1.6874   1.6342   1.6111   1.5945   1.5816   1.5711
 CONDUCTIVITY      0.7159   0.6052   0.6052   0.4995   0.4552   0.4237   0.3993   0.3796
 PRANDTL NUMBER    0.8754   0.8915   0.8915   0.9084   0.9156   0.9206   0.9242   0.9269

 PERFORMANCE PARAMETERS

 Ae/At                      1.0000   1.0000   1.2000   1.4000   1.6000   1.8000   2.0000
 CSTAR, M/SEC                843.9    843.9    843.9    843.9    843.9    843.9    843.9
 CF                         0.7076   0.7076   0.9931   1.0930   1.1598   1.2098   1.2493
 Ivac, M/SEC                1058.3   1058.3   1118.9   1158.5   1188.2   1211.7   1231.0
 Isp, M/SEC                  597.1    597.1    838.1    922.4    978.8   1020.9   1054.3

 MOLE FRACTIONS

 H2O             0.74081   *O2             0.25919

  * THERMODYNAMIC PROPERTIES FITTED TO 20000.K

    PRODUCTS WHICH WERE CONSIDERED BUT WHOSE MOLE FRACTIONS
    WERE LESS THAN 5.000000E-06 FOR ALL ASSIGNED CONDITIONS

 *H              HO2             *H2             H2O2            *O             
 *OH             O3              H2O(cr)         H2O(L)         

 NOTE. WEIGHT FRACTION OF FUEL IN TOTAL FUELS AND OF OXIDANT IN TOTAL OXIDANTS






 POINT ITN      T            H           O 
   1    1     820.674     -22.906     -13.196
 Pinf/Pt = 1.822270
   2    3     717.356     -25.510     -13.340
 Pinf/Pt = 1.829971
   2    2     716.668     -25.529     -13.341
 Pinf/Pt = 1.830022
   2    1     716.663     -25.530     -13.341
   3    1     716.663     -25.530     -13.341
   4    3     620.402     -28.740     -13.505
   4    2     612.369     -29.053     -13.520
   4    2     612.529     -29.047     -13.520
   5    3     575.360     -30.610     -13.595
   5    2     566.715     -31.003     -13.614
   5    2     566.819     -30.999     -13.613
   6    3     540.583     -32.268     -13.672
   6    2     533.321     -32.641     -13.690
   6    1     533.373     -32.638     -13.689
   7    3     512.042     -33.796     -13.742
   7    2     506.802     -34.095     -13.755
   7    1     506.823     -34.094     -13.755
   8    3     483.845     -35.483     -13.817
   8    2     484.844     -35.420     -13.814





              THEORETICAL ROCKET PERFORMANCE ASSUMING EQUILIBRIUM

           COMPOSITION DURING EXPANSION FROM INFINITE AREA COMBUSTOR

 Pin =    40.0 PSIA
 CASE =                

             REACTANT                    WT FRACTION      ENERGY      TEMP
                                          (SEE NOTE)     KJ/KG-MOL      K  
 FUEL        H2O(L)                       1.0000000   -285841.390    298.000
 OXIDANT     H2O2(L)                      1.0000000   -187793.400    298.000

 O/F=    4.40000  %FUEL= 18.518519  R,EQ.RATIO= 0.588327  PHI,EQ.RATIO= 0.000000

                 CHAMBER   THROAT     EXIT     EXIT     EXIT     EXIT     EXIT     EXIT
 Pinf/P            1.0000   1.8300   1.8300   3.6064   5.0039   6.4489   7.9640   9.5525
 P, BAR            2.7579   1.5070   1.5070  0.76473  0.55115  0.42766  0.34630  0.28871
 T, K              820.67   716.66   716.66   612.53   566.82   533.37   506.82   484.84
 RHO, KG/CU M    8.7462-1 5.4729-1 5.4729-1 3.2493-1 2.5307-1 2.0868-1 1.7783-1 1.5498-1
 H, KJ/KG        -7436.81 -7615.09 -7615.09 -7788.03 -7862.20 -7915.81 -7957.97 -7992.62
 U, KJ/KG        -7752.14 -7890.45 -7890.45 -8023.38 -8079.99 -8120.75 -8152.71 -8178.91
 G, KJ/KG        -15941.0 -15041.5 -15041.5 -14135.4 -13735.9 -13442.9 -13209.9 -13016.8
 S, KJ/(KG)(K)    10.3625  10.3625  10.3625  10.3625  10.3625  10.3625  10.3625  10.3625

 M, (1/n)          21.640   21.640   21.640   21.640   21.640   21.640   21.640   21.640
 (dLV/dLP)t      -1.00000 -1.00000 -1.00000 -1.00000 -1.00000 -1.00000 -1.00000 -1.00000
 (dLV/dLT)p        1.0000   1.0000   1.0000   1.0000   1.0000   1.0000   1.0000   1.0000
 Cp, KJ/(KG)(K)    1.7405   1.6874   1.6874   1.6342   1.6111   1.5945   1.5816   1.5711
 GAMMAs            1.2833   1.2948   1.2948   1.3074   1.3132   1.3175   1.3209   1.3237
 SON VEL,M/SEC      636.1    597.1    597.1    554.7    534.8    519.6    507.2    496.6
 MACH NUMBER        0.000    1.000    1.000    1.511    1.725    1.884    2.013    2.123

 TRANSPORT PROPERTIES (GASES ONLY)
   CONDUCTIVITY IN UNITS OF MILLIWATTS/(CM)(K)

 VISC,MILLIPOISE  0.36006  0.31975  0.31975  0.27767  0.25868  0.24460  0.23333  0.22395

  WITH EQUILIBRIUM REACTIONS

 Cp, KJ/(KG)(K)    1.7405   1.6874   1.6874   1.6342   1.6111   1.5945   1.5816   1.5711
 CONDUCTIVITY      0.7159   0.6052   0.6052   0.4995   0.4552   0.4237   0.3993   0.3796
 PRANDTL NUMBER    0.8754   0.8915   0.8915   0.9084   0.9156   0.9206   0.9242   0.9269

  WITH FROZEN REACTIONS

 Cp, KJ/(KG)(K)    1.7405   1.6874   1.6874   1.6342   1.6111   1.5945   1.5816   1.5711
 CONDUCTIVITY      0.7159   0.6052   0.6052   0.4995   0.4552   0.4237   0.3993   0.3796
 PRANDTL NUMBER    0.8754   0.8915   0.8915   0.9084   0.9156   0.9206   0.9242   0.9269

 PERFORMANCE PARAMETERS

 Ae/At                      1.0000   1.0000   1.2000   1.4000   1.6000   1.8000   2.0000
 CSTAR, M/SEC                843.9    843.9    843.9    843.9    843.9    843.9    843.9
 CF                         0.7076   0.7076   0.9931   1.0930   1.1598   1.2098   1.2493
 Ivac, M/SEC                1058.3   1058.3   1118.9   1158.5   1188.2   1211.7   1231.0
 Isp, M/SEC                  597.1    597.1    838.1    922.4    978.8   1020.9   1054.3


 MOLE FRACTIONS

 H2O              0.74081  0.74081  0.74081  0.74081  0.74081  0.74081  0.74081  0.74081
 *O2              0.25919  0.25919  0.25919  0.25919  0.25919  0.25919  0.25919  0.25919

  * THERMODYNAMIC PROPERTIES FITTED TO 20000.K

    PRODUCTS WHICH WERE CONSIDERED BUT WHOSE MOLE FRACTIONS
    WERE LESS THAN 5.000000E-06 FOR ALL ASSIGNED CONDITIONS

 *H              HO2             *H2             H2O2            *O             
 *OH             O3              H2O(cr)         H2O(L)         

 NOTE. WEIGHT FRACTION OF FUEL IN TOTAL FUELS AND OF OXIDANT IN TOTAL OXIDANTS





           THEORETICAL ROCKET PERFORMANCE ASSUMING FROZEN COMPOSITION

 Pin =    40.0 PSIA
 CASE =                

             REACTANT                    WT FRACTION      ENERGY      TEMP
                                          (SEE NOTE)     KJ/KG-MOL      K  
 FUEL        H2O(L)                       1.0000000   -285841.390    298.000
 OXIDANT     H2O2(L)                      1.0000000   -187793.400    298.000

 O/F=    4.40000  %FUEL= 18.518519  R,EQ.RATIO= 0.588327  PHI,EQ.RATIO= 0.000000

                 CHAMBER   THROAT     EXIT     EXIT     EXIT     EXIT     EXIT     EXIT
 Pinf/P            1.0000   1.8300   1.8300   3.6064   5.0039   6.4489   7.9640   9.5525
 P, BAR            2.7579   1.5070   1.5070  0.76473  0.55115  0.42766  0.34630  0.28871
 T, K              820.67   716.66   716.66   612.53   566.82   533.37   506.82   484.84
 RHO, KG/CU M    8.7462-1 5.4729-1 5.4729-1 3.2493-1 2.5307-1 2.0868-1 1.7783-1 1.5498-1
 H, KJ/KG        -7436.81 -7615.09 -7615.09 -7788.03 -7862.20 -7915.81 -7957.97 -7992.62
 U, KJ/KG        -7752.14 -7890.45 -7890.45 -8023.38 -8079.99 -8120.75 -8152.71 -8178.91
 G, KJ/KG        -15941.0 -15041.5 -15041.5 -14135.4 -13735.9 -13442.9 -13209.9 -13016.8
 S, KJ/(KG)(K)    10.3625  10.3625  10.3625  10.3625  10.3625  10.3625  10.3625  10.3625

 M, (1/n)          21.640   21.640   21.640   21.640   21.640   21.640   21.640   21.640
 Cp, KJ/(KG)(K)    1.7405   1.6874   1.6874   1.6342   1.6111   1.5945   1.5816   1.5711
 GAMMAs            1.2833   1.2948   1.2948   1.3074   1.3132   1.3175   1.3209   1.3237
 SON VEL,M/SEC      636.1    597.1    597.1    554.7    534.8    519.6    507.2    496.6
 MACH NUMBER        0.000    1.000    1.000    1.511    1.725    1.884    2.013    2.123

 TRANSPORT PROPERTIES (GASES ONLY)
   CONDUCTIVITY IN UNITS OF MILLIWATTS/(CM)(K)

 VISC,MILLIPOISE  0.36006  0.31975  0.31975  0.27767  0.25868  0.24460  0.23333  0.22395

  WITH FROZEN REACTIONS

 Cp, KJ/(KG)(K)    1.7405   1.6874   1.6874   1.6342   1.6111   1.5945   1.5816   1.5711
 CONDUCTIVITY      0.7159   0.6052   0.6052   0.4995   0.4552   0.4237   0.3993   0.3796
 PRANDTL NUMBER    0.8754   0.8915   0.8915   0.9084   0.9156   0.9206   0.9242   0.9269

 PERFORMANCE PARAMETERS

 Ae/At                      1.0000   1.0000   1.2000   1.4000   1.6000   1.8000   2.0000
 CSTAR, M/SEC                843.9    843.9    843.9    843.9    843.9    843.9    843.9
 CF                         0.7076   0.7076   0.9931   1.0930   1.1598   1.2098   1.2493
 Ivac, M/SEC                1058.3   1058.3   1118.9   1158.5   1188.2   1211.7   1231.0
 Isp, M/SEC                  597.1    597.1    838.1    922.4    978.8   1020.9   1054.3

 MOLE FRACTIONS

 H2O             0.74081   *O2             0.25919

  * THERMODYNAMIC PROPERTIES FITTED TO 20000.K

    PRODUCTS WHICH WERE CONSIDERED BUT WHOSE MOLE FRACTIONS
    WERE LESS THAN 5.000000E-06 FOR ALL ASSIGNED CONDITIONS

 *H              HO2             *H2             H2O2            *O             
 *OH             O3              H2O(cr)         H2O(L)         

 NOTE. WEIGHT FRACTION OF FUEL IN TOTAL FUELS AND OF OXIDANT IN TOTAL OXIDANTS






 POINT ITN      T            H           O 
   1    1     820.674     -22.850     -13.084
 Pinf/Pt = 1.822270
   2    3     717.356     -25.454     -13.229
 Pinf/Pt = 1.829971
   2    2     716.668     -25.474     -13.230
 Pinf/Pt = 1.830022
   2    1     716.663     -25.474     -13.230
   3    1     716.663     -25.474     -13.230
   4    3     620.402     -28.684     -13.394
   4    2     612.369     -28.997     -13.409
   4    2     612.529     -28.991     -13.409
   5    3     575.360     -30.555     -13.484
   5    2     566.715     -30.948     -13.502
   5    2     566.819     -30.943     -13.502
   6    3     540.583     -32.212     -13.561
   6    2     533.321     -32.585     -13.578
   6    1     533.373     -32.583     -13.578
   7    3     512.042     -33.740     -13.630
   7    2     506.802     -34.040     -13.644
   7    1     506.823     -34.038     -13.644
   8    3     483.845     -35.427     -13.705
   8    2     484.844     -35.364     -13.703





              THEORETICAL ROCKET PERFORMANCE ASSUMING EQUILIBRIUM

           COMPOSITION DURING EXPANSION FROM INFINITE AREA COMBUSTOR

 Pin =    50.0 PSIA
 CASE =                

             REACTANT                    WT FRACTION      ENERGY      TEMP
                                          (SEE NOTE)     KJ/KG-MOL      K  
 FUEL        H2O(L)                       1.0000000   -285841.390    298.000
 OXIDANT     H2O2(L)                      1.0000000   -187793.400    298.000

 O/F=    4.40000  %FUEL= 18.518519  R,EQ.RATIO= 0.588327  PHI,EQ.RATIO= 0.000000

                 CHAMBER   THROAT     EXIT     EXIT     EXIT     EXIT     EXIT     EXIT
 Pinf/P            1.0000   1.8300   1.8300   3.6064   5.0039   6.4489   7.9640   9.5525
 P, BAR            3.4474   1.8838   1.8838  0.95591  0.68894  0.53457  0.43287  0.36089
 T, K              820.67   716.66   716.66   612.53   566.82   533.37   506.82   484.84
 RHO, KG/CU M    1.0933 0 6.8411-1 6.8411-1 4.0617-1 3.1634-1 2.6085-1 2.2229-1 1.9372-1
 H, KJ/KG        -7436.81 -7615.09 -7615.09 -7788.03 -7862.20 -7915.81 -7957.97 -7992.62
 U, KJ/KG        -7752.14 -7890.45 -7890.45 -8023.38 -8079.99 -8120.75 -8152.71 -8178.91
 G, KJ/KG        -15870.7 -14980.0 -14980.0 -14082.8 -13687.3 -13397.1 -13166.5 -12975.2
 S, KJ/(KG)(K)    10.2767  10.2767  10.2767  10.2767  10.2767  10.2767  10.2767  10.2767

 M, (1/n)          21.640   21.640   21.640   21.640   21.640   21.640   21.640   21.640
 (dLV/dLP)t      -1.00000 -1.00000 -1.00000 -1.00000 -1.00000 -1.00000 -1.00000 -1.00000
 (dLV/dLT)p        1.0000   1.0000   1.0000   1.0000   1.0000   1.0000   1.0000   1.0000
 Cp, KJ/(KG)(K)    1.7405   1.6874   1.6874   1.6342   1.6111   1.5945   1.5816   1.5711
 GAMMAs            1.2833   1.2948   1.2948   1.3074   1.3132   1.3175   1.3209   1.3237
 SON VEL,M/SEC      636.1    597.1    597.1    554.7    534.8    519.6    507.2    496.6
 MACH NUMBER        0.000    1.000    1.000    1.511    1.725    1.884    2.013    2.123

 TRANSPORT PROPERTIES (GASES ONLY)
   CONDUCTIVITY IN UNITS OF MILLIWATTS/(CM)(K)

 VISC,MILLIPOISE  0.36006  0.31975  0.31975  0.27767  0.25868  0.24460  0.23333  0.22395

  WITH EQUILIBRIUM REACTIONS

 Cp, KJ/(KG)(K)    1.7405   1.6874   1.6874   1.6342   1.6111   1.5945   1.5816   1.5711
 CONDUCTIVITY      0.7159   0.6052   0.6052   0.4995   0.4552   0.4237   0.3993   0.3796
 PRANDTL NUMBER    0.8754   0.8915   0.8915   0.9084   0.9156   0.9206   0.9242   0.9269

  WITH FROZEN REACTIONS

 Cp, KJ/(KG)(K)    1.7405   1.6874   1.6874   1.6342   1.6111   1.5945   1.5816   1.5711
 CONDUCTIVITY      0.7159   0.6052   0.6052   0.4995   0.4552   0.4237   0.3993   0.3796
 PRANDTL NUMBER    0.8754   0.8915   0.8915   0.9084   0.9156   0.9206   0.9242   0.9269

 PERFORMANCE PARAMETERS

 Ae/At                      1.0000   1.0000   1.2000   1.4000   1.6000   1.8000   2.0000
 CSTAR, M/SEC                843.9    843.9    843.9    843.9    843.9    843.9    843.9
 CF                         0.7076   0.7076   0.9931   1.0930   1.1598   1.2098   1.2493
 Ivac, M/SEC                1058.3   1058.3   1118.9   1158.5   1188.2   1211.7   1231.0
 Isp, M/SEC                  597.1    597.1    838.1    922.4    978.8   1020.9   1054.3


 MOLE FRACTIONS

 H2O              0.74081  0.74081  0.74081  0.74081  0.74081  0.74081  0.74081  0.74081
 *O2              0.25919  0.25919  0.25919  0.25919  0.25919  0.25919  0.25919  0.25919

  * THERMODYNAMIC PROPERTIES FITTED TO 20000.K

    PRODUCTS WHICH WERE CONSIDERED BUT WHOSE MOLE FRACTIONS
    WERE LESS THAN 5.000000E-06 FOR ALL ASSIGNED CONDITIONS

 *H              HO2             *H2             H2O2            *O             
 *OH             O3              H2O(cr)         H2O(L)         

 NOTE. WEIGHT FRACTION OF FUEL IN TOTAL FUELS AND OF OXIDANT IN TOTAL OXIDANTS





           THEORETICAL ROCKET PERFORMANCE ASSUMING FROZEN COMPOSITION

 Pin =    50.0 PSIA
 CASE =                

             REACTANT                    WT FRACTION      ENERGY      TEMP
                                          (SEE NOTE)     KJ/KG-MOL      K  
 FUEL        H2O(L)                       1.0000000   -285841.390    298.000
 OXIDANT     H2O2(L)                      1.0000000   -187793.400    298.000

 O/F=    4.40000  %FUEL= 18.518519  R,EQ.RATIO= 0.588327  PHI,EQ.RATIO= 0.000000

                 CHAMBER   THROAT     EXIT     EXIT     EXIT     EXIT     EXIT     EXIT
 Pinf/P            1.0000   1.8300   1.8300   3.6064   5.0039   6.4489   7.9640   9.5525
 P, BAR            3.4474   1.8838   1.8838  0.95591  0.68894  0.53457  0.43287  0.36089
 T, K              820.67   716.66   716.66   612.53   566.82   533.37   506.82   484.84
 RHO, KG/CU M    1.0933 0 6.8411-1 6.8411-1 4.0617-1 3.1634-1 2.6085-1 2.2229-1 1.9372-1
 H, KJ/KG        -7436.81 -7615.09 -7615.09 -7788.03 -7862.20 -7915.81 -7957.97 -7992.62
 U, KJ/KG        -7752.14 -7890.45 -7890.45 -8023.38 -8079.99 -8120.75 -8152.71 -8178.91
 G, KJ/KG        -15870.7 -14980.0 -14980.0 -14082.8 -13687.3 -13397.1 -13166.5 -12975.2
 S, KJ/(KG)(K)    10.2767  10.2767  10.2767  10.2767  10.2767  10.2767  10.2767  10.2767

 M, (1/n)          21.640   21.640   21.640   21.640   21.640   21.640   21.640   21.640
 Cp, KJ/(KG)(K)    1.7405   1.6874   1.6874   1.6342   1.6111   1.5945   1.5816   1.5711
 GAMMAs            1.2833   1.2948   1.2948   1.3074   1.3132   1.3175   1.3209   1.3237
 SON VEL,M/SEC      636.1    597.1    597.1    554.7    534.8    519.6    507.2    496.6
 MACH NUMBER        0.000    1.000    1.000    1.511    1.725    1.884    2.013    2.123

 TRANSPORT PROPERTIES (GASES ONLY)
   CONDUCTIVITY IN UNITS OF MILLIWATTS/(CM)(K)

 VISC,MILLIPOISE  0.36006  0.31975  0.31975  0.27767  0.25868  0.24460  0.23333  0.22395

  WITH FROZEN REACTIONS

 Cp, KJ/(KG)(K)    1.7405   1.6874   1.6874   1.6342   1.6111   1.5945   1.5816   1.5711
 CONDUCTIVITY      0.7159   0.6052   0.6052   0.4995   0.4552   0.4237   0.3993   0.3796
 PRANDTL NUMBER    0.8754   0.8915   0.8915   0.9084   0.9156   0.9206   0.9242   0.9269

 PERFORMANCE PARAMETERS

 Ae/At                      1.0000   1.0000   1.2000   1.4000   1.6000   1.8000   2.0000
 CSTAR, M/SEC                843.9    843.9    843.9    843.9    843.9    843.9    843.9
 CF                         0.7076   0.7076   0.9931   1.0930   1.1598   1.2098   1.2493
 Ivac, M/SEC                1058.3   1058.3   1118.9   1158.5   1188.2   1211.7   1231.0
 Isp, M/SEC                  597.1    597.1    838.1    922.4    978.8   1020.9   1054.3

 MOLE FRACTIONS

 H2O             0.74081   *O2             0.25919

  * THERMODYNAMIC PROPERTIES FITTED TO 20000.K

    PRODUCTS WHICH WERE CONSIDERED BUT WHOSE MOLE FRACTIONS
    WERE LESS THAN 5.000000E-06 FOR ALL ASSIGNED CONDITIONS

 *H              HO2             *H2             H2O2            *O             
 *OH             O3              H2O(cr)         H2O(L)         

 NOTE. WEIGHT FRACTION OF FUEL IN TOTAL FUELS AND OF OXIDANT IN TOTAL OXIDANTS






 O/F =   4.600000

                       EFFECTIVE FUEL     EFFECTIVE OXIDANT        MIXTURE
 ENTHALPY                  h(2)/R              h(1)/R               h0/R
 (KG-MOL)(K)/KG       -0.19083035E+04     -0.66401406E+03     -0.88620860E+03

 KG-FORM.WT./KG             bi(2)               bi(1)               b0i
  *H                   0.11101687E+00      0.58798142E-01      0.68122915E-01
  *O                   0.55508435E-01      0.58798142E-01      0.58210695E-01

 POINT ITN      T            H           O 
   1    3     836.929     -22.755     -13.561
 Pinf/Pt = 1.821303
   2    3     732.071     -25.294     -13.704
 Pinf/Pt = 1.829020
   2    2     731.370     -25.313     -13.705
 Pinf/Pt = 1.829071
   2    1     731.365     -25.313     -13.705
   3    1     731.365     -25.313     -13.705
   4    3     633.490     -28.446     -13.867
   4    2     625.403     -28.748     -13.882
   4    2     625.563     -28.742     -13.881
   5    3     587.658     -30.271     -13.956
   5    2     578.974     -30.649     -13.974
   5    2     579.077     -30.645     -13.973
   6    3     552.255     -31.888     -14.032
   6    2     544.994     -32.245     -14.048
   6    1     545.045     -32.243     -14.048
   7    3     523.189     -33.379     -14.100
   7    2     517.997     -33.663     -14.113
   7    1     518.018     -33.662     -14.113
   8    3     494.589     -35.017     -14.173
   8    2     495.634     -34.954     -14.171





              THEORETICAL ROCKET PERFORMANCE ASSUMING EQUILIBRIUM

           COMPOSITION DURING EXPANSION FROM INFINITE AREA COMBUSTOR

 Pin =    20.0 PSIA
 CASE =                

             REACTANT                    WT FRACTION      ENERGY      TEMP
                                          (SEE NOTE)     KJ/KG-MOL      K  
 FUEL        H2O(L)                       1.0000000   -285841.390    298.000
 OXIDANT     H2O2(L)                      1.0000000   -187793.400    298.000

 O/F=    4.60000  %FUEL= 17.857143  R,EQ.RATIO= 0.585141  PHI,EQ.RATIO= 0.000000

                 CHAMBER   THROAT     EXIT     EXIT     EXIT     EXIT     EXIT     EXIT
 Pinf/P            1.0000   1.8291   1.8291   3.6025   4.9972   6.4390   7.9506   9.5354
 P, BAR            1.3789  0.75391  0.75391  0.38278  0.27595  0.21415  0.17344  0.14461
 T, K              836.93   731.37   731.37   625.56   579.08   545.05   518.02   495.63
 RHO, KG/CU M    4.2952-1 2.6872-1 2.6872-1 1.5951-1 1.2423-1 1.0243-1 8.7282-2 7.6062-2
 H, KJ/KG        -7368.39 -7549.80 -7549.80 -7725.93 -7801.51 -7856.15 -7899.14 -7934.47
 U, KJ/KG        -7689.44 -7830.35 -7830.35 -7965.89 -8023.64 -8065.23 -8097.85 -8124.60
 G, KJ/KG        -16280.0 -15337.4 -15337.4 -14386.9 -13967.5 -13659.8 -13415.0 -13212.0
 S, KJ/(KG)(K)    10.6480  10.6480  10.6480  10.6480  10.6480  10.6480  10.6480  10.6480

 M, (1/n)          21.675   21.675   21.675   21.675   21.675   21.675   21.675   21.675
 (dLV/dLP)t      -1.00000 -1.00000 -1.00000 -1.00000 -1.00000 -1.00000 -1.00000 -1.00000
 (dLV/dLT)p        1.0000   1.0000   1.0000   1.0000   1.0000   1.0000   1.0000   1.0000
 Cp, KJ/(KG)(K)    1.7453   1.6916   1.6916   1.6377   1.6142   1.5972   1.5839   1.5731
 GAMMAs            1.2817   1.2933   1.2933   1.3059   1.3117   1.3161   1.3196   1.3225
 SON VEL,M/SEC      641.5    602.4    602.4    559.8    539.8    524.6    512.1    501.4
 MACH NUMBER        0.000    1.000    1.000    1.511    1.724    1.883    2.012    2.122

 TRANSPORT PROPERTIES (GASES ONLY)
   CONDUCTIVITY IN UNITS OF MILLIWATTS/(CM)(K)

 VISC,MILLIPOISE  0.36664  0.32601  0.32601  0.28350  0.26428  0.25001  0.23857  0.22904

  WITH EQUILIBRIUM REACTIONS

 Cp, KJ/(KG)(K)    1.7453   1.6916   1.6916   1.6377   1.6142   1.5972   1.5839   1.5731
 CONDUCTIVITY      0.7334   0.6206   0.6206   0.5126   0.4671   0.4348   0.4098   0.3895
 PRANDTL NUMBER    0.8726   0.8887   0.8887   0.9058   0.9132   0.9184   0.9222   0.9251

  WITH FROZEN REACTIONS

 Cp, KJ/(KG)(K)    1.7453   1.6916   1.6916   1.6377   1.6142   1.5972   1.5839   1.5731
 CONDUCTIVITY      0.7334   0.6206   0.6206   0.5126   0.4671   0.4348   0.4098   0.3895
 PRANDTL NUMBER    0.8726   0.8887   0.8887   0.9058   0.9132   0.9184   0.9222   0.9251

 PERFORMANCE PARAMETERS

 Ae/At                      1.0000   1.0000   1.2000   1.4000   1.6000   1.8000   2.0000
 CSTAR, M/SEC                851.9    851.9    851.9    851.9    851.9    851.9    851.9
 CF                         0.7071   0.7071   0.9926   1.0925   1.1594   1.2094   1.2490
 Ivac, M/SEC                1068.1   1068.1   1129.4   1169.4   1199.4   1223.2   1242.7
 Isp, M/SEC                  602.4    602.4    845.6    930.7    987.7   1030.3   1064.0


 MOLE FRACTIONS

 H2O              0.73828  0.73828  0.73828  0.73828  0.73828  0.73828  0.73828  0.73828
 *O2              0.26172  0.26172  0.26172  0.26172  0.26172  0.26172  0.26172  0.26172

  * THERMODYNAMIC PROPERTIES FITTED TO 20000.K

    PRODUCTS WHICH WERE CONSIDERED BUT WHOSE MOLE FRACTIONS
    WERE LESS THAN 5.000000E-06 FOR ALL ASSIGNED CONDITIONS

 *H              HO2             *H2             H2O2            *O             
 *OH             O3              H2O(cr)         H2O(L)         

 NOTE. WEIGHT FRACTION OF FUEL IN TOTAL FUELS AND OF OXIDANT IN TOTAL OXIDANTS





           THEORETICAL ROCKET PERFORMANCE ASSUMING FROZEN COMPOSITION

 Pin =    20.0 PSIA
 CASE =                

             REACTANT                    WT FRACTION      ENERGY      TEMP
                                          (SEE NOTE)     KJ/KG-MOL      K  
 FUEL        H2O(L)                       1.0000000   -285841.390    298.000
 OXIDANT     H2O2(L)                      1.0000000   -187793.400    298.000

 O/F=    4.60000  %FUEL= 17.857143  R,EQ.RATIO= 0.585141  PHI,EQ.RATIO= 0.000000

                 CHAMBER   THROAT     EXIT     EXIT     EXIT     EXIT     EXIT     EXIT
 Pinf/P            1.0000   1.8291   1.8291   3.6025   4.9972   6.4390   7.9506   9.5354
 P, BAR            1.3789  0.75391  0.75391  0.38278  0.27595  0.21415  0.17344  0.14461
 T, K              836.93   731.37   731.37   625.56   579.08   545.05   518.02   495.63
 RHO, KG/CU M    4.2952-1 2.6872-1 2.6872-1 1.5951-1 1.2423-1 1.0243-1 8.7282-2 7.6062-2
 H, KJ/KG        -7368.39 -7549.80 -7549.80 -7725.93 -7801.51 -7856.15 -7899.14 -7934.47
 U, KJ/KG        -7689.44 -7830.35 -7830.35 -7965.89 -8023.64 -8065.23 -8097.85 -8124.60
 G, KJ/KG        -16280.0 -15337.4 -15337.4 -14386.9 -13967.5 -13659.8 -13415.0 -13212.0
 S, KJ/(KG)(K)    10.6480  10.6480  10.6480  10.6480  10.6480  10.6480  10.6480  10.6480

 M, (1/n)          21.675   21.675   21.675   21.675   21.675   21.675   21.675   21.675
 Cp, KJ/(KG)(K)    1.7453   1.6916   1.6916   1.6377   1.6142   1.5972   1.5839   1.5731
 GAMMAs            1.2817   1.2933   1.2933   1.3059   1.3117   1.3161   1.3196   1.3225
 SON VEL,M/SEC      641.5    602.4    602.4    559.8    539.8    524.6    512.1    501.4
 MACH NUMBER        0.000    1.000    1.000    1.511    1.724    1.883    2.012    2.122

 TRANSPORT PROPERTIES (GASES ONLY)
   CONDUCTIVITY IN UNITS OF MILLIWATTS/(CM)(K)

 VISC,MILLIPOISE  0.36664  0.32601  0.32601  0.28350  0.26428  0.25001  0.23857  0.22904

  WITH FROZEN REACTIONS

 Cp, KJ/(KG)(K)    1.7453   1.6916   1.6916   1.6377   1.6142   1.5972   1.5839   1.5731
 CONDUCTIVITY      0.7334   0.6206   0.6206   0.5126   0.4671   0.4348   0.4098   0.3895
 PRANDTL NUMBER    0.8726   0.8887   0.8887   0.9058   0.9132   0.9184   0.9222   0.9251

 PERFORMANCE PARAMETERS

 Ae/At                      1.0000   1.0000   1.2000   1.4000   1.6000   1.8000   2.0000
 CSTAR, M/SEC                851.9    851.9    851.9    851.9    851.9    851.9    851.9
 CF                         0.7071   0.7071   0.9926   1.0925   1.1594   1.2094   1.2490
 Ivac, M/SEC                1068.1   1068.1   1129.4   1169.4   1199.4   1223.2   1242.7
 Isp, M/SEC                  602.4    602.4    845.6    930.7    987.7   1030.3   1064.0

 MOLE FRACTIONS

 H2O             0.73828   *O2             0.26172

  * THERMODYNAMIC PROPERTIES FITTED TO 20000.K

    PRODUCTS WHICH WERE CONSIDERED BUT WHOSE MOLE FRACTIONS
    WERE LESS THAN 5.000000E-06 FOR ALL ASSIGNED CONDITIONS

 *H              HO2             *H2             H2O2            *O             
 *OH             O3              H2O(cr)         H2O(L)         

 NOTE. WEIGHT FRACTION OF FUEL IN TOTAL FUELS AND OF OXIDANT IN TOTAL OXIDANTS






 POINT ITN      T            H           O 
   1    1     836.929     -22.653     -13.359
 Pinf/Pt = 1.821303
   2    3     732.071     -25.192     -13.502
 Pinf/Pt = 1.829020
   2    2     731.370     -25.212     -13.503
 Pinf/Pt = 1.829071
   2    1     731.365     -25.212     -13.503
   3    1     731.365     -25.212     -13.503
   4    3     633.490     -28.344     -13.664
   4    2     625.403     -28.647     -13.679
   4    2     625.563     -28.641     -13.679
   5    3     587.658     -30.169     -13.753
   5    2     578.974     -30.548     -13.771
   5    2     579.077     -30.543     -13.771
   6    3     552.255     -31.786     -13.829
   6    2     544.994     -32.144     -13.845
   6    1     545.045     -32.141     -13.845
   7    3     523.189     -33.278     -13.897
   7    2     517.997     -33.561     -13.910
   7    1     518.018     -33.560     -13.910
   8    3     494.589     -34.916     -13.971
   8    2     495.634     -34.853     -13.968





              THEORETICAL ROCKET PERFORMANCE ASSUMING EQUILIBRIUM

           COMPOSITION DURING EXPANSION FROM INFINITE AREA COMBUSTOR

 Pin =    30.0 PSIA
 CASE =                

             REACTANT                    WT FRACTION      ENERGY      TEMP
                                          (SEE NOTE)     KJ/KG-MOL      K  
 FUEL        H2O(L)                       1.0000000   -285841.390    298.000
 OXIDANT     H2O2(L)                      1.0000000   -187793.400    298.000

 O/F=    4.60000  %FUEL= 17.857143  R,EQ.RATIO= 0.585141  PHI,EQ.RATIO= 0.000000

                 CHAMBER   THROAT     EXIT     EXIT     EXIT     EXIT     EXIT     EXIT
 Pinf/P            1.0000   1.8291   1.8291   3.6025   4.9972   6.4390   7.9506   9.5354
 P, BAR            2.0684   1.1309   1.1309  0.57417  0.41392  0.32123  0.26016  0.21692
 T, K              836.93   731.37   731.37   625.56   579.08   545.05   518.02   495.63
 RHO, KG/CU M    6.4428-1 4.0308-1 4.0308-1 2.3927-1 1.8634-1 1.5364-1 1.3092-1 1.1409-1
 H, KJ/KG        -7368.39 -7549.80 -7549.80 -7725.93 -7801.51 -7856.15 -7899.14 -7934.47
 U, KJ/KG        -7689.44 -7830.35 -7830.35 -7965.89 -8023.64 -8065.23 -8097.85 -8124.60
 G, KJ/KG        -16149.8 -15223.6 -15223.6 -14289.6 -13877.5 -13575.0 -13334.4 -13134.9
 S, KJ/(KG)(K)    10.4925  10.4925  10.4925  10.4925  10.4925  10.4925  10.4925  10.4925

 M, (1/n)          21.675   21.675   21.675   21.675   21.675   21.675   21.675   21.675
 (dLV/dLP)t      -1.00000 -1.00000 -1.00000 -1.00000 -1.00000 -1.00000 -1.00000 -1.00000
 (dLV/dLT)p        1.0000   1.0000   1.0000   1.0000   1.0000   1.0000   1.0000   1.0000
 Cp, KJ/(KG)(K)    1.7453   1.6916   1.6916   1.6377   1.6142   1.5972   1.5839   1.5731
 GAMMAs            1.2817   1.2933   1.2933   1.3059   1.3117   1.3161   1.3196   1.3225
 SON VEL,M/SEC      641.5    602.4    602.4    559.8    539.8    524.6    512.1    501.4
 MACH NUMBER        0.000    1.000    1.000    1.511    1.724    1.883    2.012    2.122

 TRANSPORT PROPERTIES (GASES ONLY)
   CONDUCTIVITY IN UNITS OF MILLIWATTS/(CM)(K)

 VISC,MILLIPOISE  0.36664  0.32601  0.32601  0.28350  0.26428  0.25001  0.23857  0.22904

  WITH EQUILIBRIUM REACTIONS

 Cp, KJ/(KG)(K)    1.7453   1.6916   1.6916   1.6377   1.6142   1.5972   1.5839   1.5731
 CONDUCTIVITY      0.7334   0.6206   0.6206   0.5126   0.4671   0.4348   0.4098   0.3895
 PRANDTL NUMBER    0.8726   0.8887   0.8887   0.9058   0.9132   0.9184   0.9222   0.9251

  WITH FROZEN REACTIONS

 Cp, KJ/(KG)(K)    1.7453   1.6916   1.6916   1.6377   1.6142   1.5972   1.5839   1.5731
 CONDUCTIVITY      0.7334   0.6206   0.6206   0.5126   0.4671   0.4348   0.4098   0.3895
 PRANDTL NUMBER    0.8726   0.8887   0.8887   0.9058   0.9132   0.9184   0.9222   0.9251

 PERFORMANCE PARAMETERS

 Ae/At                      1.0000   1.0000   1.2000   1.4000   1.6000   1.8000   2.0000
 CSTAR, M/SEC                851.9    851.9    851.9    851.9    851.9    851.9    851.9
 CF                         0.7071   0.7071   0.9926   1.0925   1.1594   1.2094   1.2490
 Ivac, M/SEC                1068.1   1068.1   1129.4   1169.4   1199.4   1223.2   1242.7
 Isp, M/SEC                  602.4    602.4    845.6    930.7    987.7   1030.3   1064.0


 MOLE FRACTIONS

 H2O              0.73828  0.73828  0.73828  0.73828  0.73828  0.73828  0.73828  0.73828
 *O2              0.26172  0.26172  0.26172  0.26172  0.26172  0.26172  0.26172  0.26172

  * THERMODYNAMIC PROPERTIES FITTED TO 20000.K

    PRODUCTS WHICH WERE CONSIDERED BUT WHOSE MOLE FRACTIONS
    WERE LESS THAN 5.000000E-06 FOR ALL ASSIGNED CONDITIONS

 *H              HO2             *H2             H2O2            *O             
 *OH             O3              H2O(cr)         H2O(L)         

 NOTE. WEIGHT FRACTION OF FUEL IN TOTAL FUELS AND OF OXIDANT IN TOTAL OXIDANTS





           THEORETICAL ROCKET PERFORMANCE ASSUMING FROZEN COMPOSITION

 Pin =    30.0 PSIA
 CASE =                

             REACTANT                    WT FRACTION      ENERGY      TEMP
                                          (SEE NOTE)     KJ/KG-MOL      K  
 FUEL        H2O(L)                       1.0000000   -285841.390    298.000
 OXIDANT     H2O2(L)                      1.0000000   -187793.400    298.000

 O/F=    4.60000  %FUEL= 17.857143  R,EQ.RATIO= 0.585141  PHI,EQ.RATIO= 0.000000

                 CHAMBER   THROAT     EXIT     EXIT     EXIT     EXIT     EXIT     EXIT
 Pinf/P            1.0000   1.8291   1.8291   3.6025   4.9972   6.4390   7.9506   9.5354
 P, BAR            2.0684   1.1309   1.1309  0.57417  0.41392  0.32123  0.26016  0.21692
 T, K              836.93   731.37   731.37   625.56   579.08   545.05   518.02   495.63
 RHO, KG/CU M    6.4428-1 4.0308-1 4.0308-1 2.3927-1 1.8634-1 1.5364-1 1.3092-1 1.1409-1
 H, KJ/KG        -7368.39 -7549.80 -7549.80 -7725.93 -7801.51 -7856.15 -7899.14 -7934.47
 U, KJ/KG        -7689.44 -7830.35 -7830.35 -7965.89 -8023.64 -8065.23 -8097.85 -8124.60
 G, KJ/KG        -16149.8 -15223.6 -15223.6 -14289.6 -13877.5 -13575.0 -13334.4 -13134.9
 S, KJ/(KG)(K)    10.4925  10.4925  10.4925  10.4925  10.4925  10.4925  10.4925  10.4925

 M, (1/n)          21.675   21.675   21.675   21.675   21.675   21.675   21.675   21.675
 Cp, KJ/(KG)(K)    1.7453   1.6916   1.6916   1.6377   1.6142   1.5972   1.5839   1.5731
 GAMMAs            1.2817   1.2933   1.2933   1.3059   1.3117   1.3161   1.3196   1.3225
 SON VEL,M/SEC      641.5    602.4    602.4    559.8    539.8    524.6    512.1    501.4
 MACH NUMBER        0.000    1.000    1.000    1.511    1.724    1.883    2.012    2.122

 TRANSPORT PROPERTIES (GASES ONLY)
   CONDUCTIVITY IN UNITS OF MILLIWATTS/(CM)(K)

 VISC,MILLIPOISE  0.36664  0.32601  0.32601  0.28350  0.26428  0.25001  0.23857  0.22904

  WITH FROZEN REACTIONS

 Cp, KJ/(KG)(K)    1.7453   1.6916   1.6916   1.6377   1.6142   1.5972   1.5839   1.5731
 CONDUCTIVITY      0.7334   0.6206   0.6206   0.5126   0.4671   0.4348   0.4098   0.3895
 PRANDTL NUMBER    0.8726   0.8887   0.8887   0.9058   0.9132   0.9184   0.9222   0.9251

 PERFORMANCE PARAMETERS

 Ae/At                      1.0000   1.0000   1.2000   1.4000   1.6000   1.8000   2.0000
 CSTAR, M/SEC                851.9    851.9    851.9    851.9    851.9    851.9    851.9
 CF                         0.7071   0.7071   0.9926   1.0925   1.1594   1.2094   1.2490
 Ivac, M/SEC                1068.1   1068.1   1129.4   1169.4   1199.4   1223.2   1242.7
 Isp, M/SEC                  602.4    602.4    845.6    930.7    987.7   1030.3   1064.0

 MOLE FRACTIONS

 H2O             0.73828   *O2             0.26172

  * THERMODYNAMIC PROPERTIES FITTED TO 20000.K

    PRODUCTS WHICH WERE CONSIDERED BUT WHOSE MOLE FRACTIONS
    WERE LESS THAN 5.000000E-06 FOR ALL ASSIGNED CONDITIONS

 *H              HO2             *H2             H2O2            *O             
 *OH             O3              H2O(cr)         H2O(L)         

 NOTE. WEIGHT FRACTION OF FUEL IN TOTAL FUELS AND OF OXIDANT IN TOTAL OXIDANTS






 POINT ITN      T            H           O 
   1    1     836.929     -22.581     -13.215
 Pinf/Pt = 1.821303
   2    3     732.071     -25.120     -13.358
 Pinf/Pt = 1.829020
   2    2     731.370     -25.140     -13.359
 Pinf/Pt = 1.829071
   2    1     731.365     -25.140     -13.359
   3    1     731.365     -25.140     -13.359
   4    3     633.490     -28.272     -13.520
   4    2     625.403     -28.575     -13.535
   4    2     625.563     -28.569     -13.535
   5    3     587.658     -30.097     -13.609
   5    2     578.974     -30.476     -13.627
   5    2     579.077     -30.471     -13.627
   6    3     552.255     -31.714     -13.685
   6    2     544.994     -32.072     -13.702
   6    1     545.045     -32.070     -13.701
   7    3     523.189     -33.206     -13.753
   7    2     517.997     -33.490     -13.766
   7    1     518.018     -33.488     -13.766
   8    3     494.589     -34.844     -13.827
   8    2     495.634     -34.781     -13.824





              THEORETICAL ROCKET PERFORMANCE ASSUMING EQUILIBRIUM

           COMPOSITION DURING EXPANSION FROM INFINITE AREA COMBUSTOR

 Pin =    40.0 PSIA
 CASE =                

             REACTANT                    WT FRACTION      ENERGY      TEMP
                                          (SEE NOTE)     KJ/KG-MOL      K  
 FUEL        H2O(L)                       1.0000000   -285841.390    298.000
 OXIDANT     H2O2(L)                      1.0000000   -187793.400    298.000

 O/F=    4.60000  %FUEL= 17.857143  R,EQ.RATIO= 0.585141  PHI,EQ.RATIO= 0.000000

                 CHAMBER   THROAT     EXIT     EXIT     EXIT     EXIT     EXIT     EXIT
 Pinf/P            1.0000   1.8291   1.8291   3.6025   4.9972   6.4390   7.9506   9.5354
 P, BAR            2.7579   1.5078   1.5078  0.76556  0.55189  0.42831  0.34688  0.28923
 T, K              836.93   731.37   731.37   625.56   579.08   545.05   518.02   495.63
 RHO, KG/CU M    8.5904-1 5.3745-1 5.3745-1 3.1903-1 2.4845-1 2.0486-1 1.7456-1 1.5212-1
 H, KJ/KG        -7368.39 -7549.80 -7549.80 -7725.93 -7801.51 -7856.15 -7899.14 -7934.47
 U, KJ/KG        -7689.44 -7830.35 -7830.35 -7965.89 -8023.64 -8065.23 -8097.85 -8124.60
 G, KJ/KG        -16057.5 -15142.9 -15142.9 -14220.6 -13813.6 -13514.9 -13277.3 -13080.2
 S, KJ/(KG)(K)    10.3821  10.3821  10.3821  10.3821  10.3821  10.3821  10.3821  10.3821

 M, (1/n)          21.675   21.675   21.675   21.675   21.675   21.675   21.675   21.675
 (dLV/dLP)t      -1.00000 -1.00000 -1.00000 -1.00000 -1.00000 -1.00000 -1.00000 -1.00000
 (dLV/dLT)p        1.0000   1.0000   1.0000   1.0000   1.0000   1.0000   1.0000   1.0000
 Cp, KJ/(KG)(K)    1.7453   1.6916   1.6916   1.6377   1.6142   1.5972   1.5839   1.5731
 GAMMAs            1.2817   1.2933   1.2933   1.3059   1.3117   1.3161   1.3196   1.3225
 SON VEL,M/SEC      641.5    602.4    602.4    559.8    539.8    524.6    512.1    501.4
 MACH NUMBER        0.000    1.000    1.000    1.511    1.724    1.883    2.012    2.122

 TRANSPORT PROPERTIES (GASES ONLY)
   CONDUCTIVITY IN UNITS OF MILLIWATTS/(CM)(K)

 VISC,MILLIPOISE  0.36664  0.32601  0.32601  0.28350  0.26428  0.25001  0.23857  0.22904

  WITH EQUILIBRIUM REACTIONS

 Cp, KJ/(KG)(K)    1.7453   1.6916   1.6916   1.6377   1.6142   1.5972   1.5839   1.5731
 CONDUCTIVITY      0.7334   0.6206   0.6206   0.5126   0.4671   0.4348   0.4098   0.3895
 PRANDTL NUMBER    0.8726   0.8887   0.8887   0.9058   0.9132   0.9184   0.9222   0.9251

  WITH FROZEN REACTIONS

 Cp, KJ/(KG)(K)    1.7453   1.6916   1.6916   1.6377   1.6142   1.5972   1.5839   1.5731
 CONDUCTIVITY      0.7334   0.6206   0.6206   0.5126   0.4671   0.4348   0.4098   0.3895
 PRANDTL NUMBER    0.8726   0.8887   0.8887   0.9058   0.9132   0.9184   0.9222   0.9251

 PERFORMANCE PARAMETERS

 Ae/At                      1.0000   1.0000   1.2000   1.4000   1.6000   1.8000   2.0000
 CSTAR, M/SEC                851.9    851.9    851.9    851.9    851.9    851.9    851.9
 CF                         0.7071   0.7071   0.9926   1.0925   1.1594   1.2094   1.2490
 Ivac, M/SEC                1068.1   1068.1   1129.4   1169.4   1199.4   1223.2   1242.7
 Isp, M/SEC                  602.4    602.4    845.6    930.7    987.7   1030.3   1064.0


 MOLE FRACTIONS

 H2O              0.73828  0.73828  0.73828  0.73828  0.73828  0.73828  0.73828  0.73828
 *O2              0.26172  0.26172  0.26172  0.26172  0.26172  0.26172  0.26172  0.26172

  * THERMODYNAMIC PROPERTIES FITTED TO 20000.K

    PRODUCTS WHICH WERE CONSIDERED BUT WHOSE MOLE FRACTIONS
    WERE LESS THAN 5.000000E-06 FOR ALL ASSIGNED CONDITIONS

 *H              HO2             *H2             H2O2            *O             
 *OH             O3              H2O(cr)         H2O(L)         

 NOTE. WEIGHT FRACTION OF FUEL IN TOTAL FUELS AND OF OXIDANT IN TOTAL OXIDANTS





           THEORETICAL ROCKET PERFORMANCE ASSUMING FROZEN COMPOSITION

 Pin =    40.0 PSIA
 CASE =                

             REACTANT                    WT FRACTION      ENERGY      TEMP
                                          (SEE NOTE)     KJ/KG-MOL      K  
 FUEL        H2O(L)                       1.0000000   -285841.390    298.000
 OXIDANT     H2O2(L)                      1.0000000   -187793.400    298.000

 O/F=    4.60000  %FUEL= 17.857143  R,EQ.RATIO= 0.585141  PHI,EQ.RATIO= 0.000000

                 CHAMBER   THROAT     EXIT     EXIT     EXIT     EXIT     EXIT     EXIT
 Pinf/P            1.0000   1.8291   1.8291   3.6025   4.9972   6.4390   7.9506   9.5354
 P, BAR            2.7579   1.5078   1.5078  0.76556  0.55189  0.42831  0.34688  0.28923
 T, K              836.93   731.37   731.37   625.56   579.08   545.05   518.02   495.63
 RHO, KG/CU M    8.5904-1 5.3745-1 5.3745-1 3.1903-1 2.4845-1 2.0486-1 1.7456-1 1.5212-1
 H, KJ/KG        -7368.39 -7549.80 -7549.80 -7725.93 -7801.51 -7856.15 -7899.14 -7934.47
 U, KJ/KG        -7689.44 -7830.35 -7830.35 -7965.89 -8023.64 -8065.23 -8097.85 -8124.60
 G, KJ/KG        -16057.5 -15142.9 -15142.9 -14220.6 -13813.6 -13514.9 -13277.3 -13080.2
 S, KJ/(KG)(K)    10.3821  10.3821  10.3821  10.3821  10.3821  10.3821  10.3821  10.3821

 M, (1/n)          21.675   21.675   21.675   21.675   21.675   21.675   21.675   21.675
 Cp, KJ/(KG)(K)    1.7453   1.6916   1.6916   1.6377   1.6142   1.5972   1.5839   1.5731
 GAMMAs            1.2817   1.2933   1.2933   1.3059   1.3117   1.3161   1.3196   1.3225
 SON VEL,M/SEC      641.5    602.4    602.4    559.8    539.8    524.6    512.1    501.4
 MACH NUMBER        0.000    1.000    1.000    1.511    1.724    1.883    2.012    2.122

 TRANSPORT PROPERTIES (GASES ONLY)
   CONDUCTIVITY IN UNITS OF MILLIWATTS/(CM)(K)

 VISC,MILLIPOISE  0.36664  0.32601  0.32601  0.28350  0.26428  0.25001  0.23857  0.22904

  WITH FROZEN REACTIONS

 Cp, KJ/(KG)(K)    1.7453   1.6916   1.6916   1.6377   1.6142   1.5972   1.5839   1.5731
 CONDUCTIVITY      0.7334   0.6206   0.6206   0.5126   0.4671   0.4348   0.4098   0.3895
 PRANDTL NUMBER    0.8726   0.8887   0.8887   0.9058   0.9132   0.9184   0.9222   0.9251

 PERFORMANCE PARAMETERS

 Ae/At                      1.0000   1.0000   1.2000   1.4000   1.6000   1.8000   2.0000
 CSTAR, M/SEC                851.9    851.9    851.9    851.9    851.9    851.9    851.9
 CF                         0.7071   0.7071   0.9926   1.0925   1.1594   1.2094   1.2490
 Ivac, M/SEC                1068.1   1068.1   1129.4   1169.4   1199.4   1223.2   1242.7
 Isp, M/SEC                  602.4    602.4    845.6    930.7    987.7   1030.3   1064.0

 MOLE FRACTIONS

 H2O             0.73828   *O2             0.26172

  * THERMODYNAMIC PROPERTIES FITTED TO 20000.K

    PRODUCTS WHICH WERE CONSIDERED BUT WHOSE MOLE FRACTIONS
    WERE LESS THAN 5.000000E-06 FOR ALL ASSIGNED CONDITIONS

 *H              HO2             *H2             H2O2            *O             
 *OH             O3              H2O(cr)         H2O(L)         

 NOTE. WEIGHT FRACTION OF FUEL IN TOTAL FUELS AND OF OXIDANT IN TOTAL OXIDANTS






 POINT ITN      T            H           O 
   1    1     836.929     -22.526     -13.103
 Pinf/Pt = 1.821303
   2    3     732.071     -25.065     -13.246
 Pinf/Pt = 1.829020
   2    2     731.370     -25.084     -13.247
 Pinf/Pt = 1.829071
   2    1     731.365     -25.084     -13.247
   3    1     731.365     -25.084     -13.247
   4    3     633.490     -28.217     -13.409
   4    2     625.403     -28.519     -13.424
   4    2     625.563     -28.513     -13.423
   5    3     587.658     -30.042     -13.497
   5    2     578.974     -30.420     -13.515
   5    2     579.077     -30.415     -13.515
   6    3     552.255     -31.659     -13.573
   6    2     544.994     -32.016     -13.590
   6    1     545.045     -32.014     -13.590
   7    3     523.189     -33.150     -13.642
   7    2     517.997     -33.434     -13.655
   7    1     518.018     -33.433     -13.655
   8    3     494.589     -34.788     -13.715
   8    2     495.634     -34.725     -13.713





              THEORETICAL ROCKET PERFORMANCE ASSUMING EQUILIBRIUM

           COMPOSITION DURING EXPANSION FROM INFINITE AREA COMBUSTOR

 Pin =    50.0 PSIA
 CASE =                

             REACTANT                    WT FRACTION      ENERGY      TEMP
                                          (SEE NOTE)     KJ/KG-MOL      K  
 FUEL        H2O(L)                       1.0000000   -285841.390    298.000
 OXIDANT     H2O2(L)                      1.0000000   -187793.400    298.000

 O/F=    4.60000  %FUEL= 17.857143  R,EQ.RATIO= 0.585141  PHI,EQ.RATIO= 0.000000

                 CHAMBER   THROAT     EXIT     EXIT     EXIT     EXIT     EXIT     EXIT
 Pinf/P            1.0000   1.8291   1.8291   3.6025   4.9972   6.4390   7.9506   9.5354
 P, BAR            3.4474   1.8848   1.8848  0.95695  0.68986  0.53539  0.43360  0.36153
 T, K              836.93   731.37   731.37   625.56   579.08   545.05   518.02   495.63
 RHO, KG/CU M    1.0738 0 6.7181-1 6.7181-1 3.9879-1 3.1056-1 2.5607-1 2.1820-1 1.9016-1
 H, KJ/KG        -7368.39 -7549.80 -7549.80 -7725.93 -7801.51 -7856.15 -7899.14 -7934.47
 U, KJ/KG        -7689.44 -7830.35 -7830.35 -7965.89 -8023.64 -8065.23 -8097.85 -8124.60
 G, KJ/KG        -15985.9 -15080.3 -15080.3 -14167.0 -13764.0 -13468.2 -13232.9 -13037.8
 S, KJ/(KG)(K)    10.2965  10.2965  10.2965  10.2965  10.2965  10.2965  10.2965  10.2965

 M, (1/n)          21.675   21.675   21.675   21.675   21.675   21.675   21.675   21.675
 (dLV/dLP)t      -1.00000 -1.00000 -1.00000 -1.00000 -1.00000 -1.00000 -1.00000 -1.00000
 (dLV/dLT)p        1.0000   1.0000   1.0000   1.0000   1.0000   1.0000   1.0000   1.0000
 Cp, KJ/(KG)(K)    1.7453   1.6916   1.6916   1.6377   1.6142   1.5972   1.5839   1.5731
 GAMMAs            1.2817   1.2933   1.2933   1.3059   1.3117   1.3161   1.3196   1.3225
 SON VEL,M/SEC      641.5    602.4    602.4    559.8    539.8    524.6    512.1    501.4
 MACH NUMBER        0.000    1.000    1.000    1.511    1.724    1.883    2.012    2.122

 TRANSPORT PROPERTIES (GASES ONLY)
   CONDUCTIVITY IN UNITS OF MILLIWATTS/(CM)(K)

 VISC,MILLIPOISE  0.36664  0.32601  0.32601  0.28350  0.26428  0.25001  0.23857  0.22904

  WITH EQUILIBRIUM REACTIONS

 Cp, KJ/(KG)(K)    1.7453   1.6916   1.6916   1.6377   1.6142   1.5972   1.5839   1.5731
 CONDUCTIVITY      0.7334   0.6206   0.6206   0.5126   0.4671   0.4348   0.4098   0.3895
 PRANDTL NUMBER    0.8726   0.8887   0.8887   0.9058   0.9132   0.9184   0.9222   0.9251

  WITH FROZEN REACTIONS

 Cp, KJ/(KG)(K)    1.7453   1.6916   1.6916   1.6377   1.6142   1.5972   1.5839   1.5731
 CONDUCTIVITY      0.7334   0.6206   0.6206   0.5126   0.4671   0.4348   0.4098   0.3895
 PRANDTL NUMBER    0.8726   0.8887   0.8887   0.9058   0.9132   0.9184   0.9222   0.9251

 PERFORMANCE PARAMETERS

 Ae/At                      1.0000   1.0000   1.2000   1.4000   1.6000   1.8000   2.0000
 CSTAR, M/SEC                851.9    851.9    851.9    851.9    851.9    851.9    851.9
 CF                         0.7071   0.7071   0.9926   1.0925   1.1594   1.2094   1.2490
 Ivac, M/SEC                1068.1   1068.1   1129.4   1169.4   1199.4   1223.2   1242.7
 Isp, M/SEC                  602.4    602.4    845.6    930.7    987.7   1030.3   1064.0


 MOLE FRACTIONS

 H2O              0.73828  0.73828  0.73828  0.73828  0.73828  0.73828  0.73828  0.73828
 *O2              0.26172  0.26172  0.26172  0.26172  0.26172  0.26172  0.26172  0.26172

  * THERMODYNAMIC PROPERTIES FITTED TO 20000.K

    PRODUCTS WHICH WERE CONSIDERED BUT WHOSE MOLE FRACTIONS
    WERE LESS THAN 5.000000E-06 FOR ALL ASSIGNED CONDITIONS

 *H              HO2             *H2             H2O2            *O             
 *OH             O3              H2O(cr)         H2O(L)         

 NOTE. WEIGHT FRACTION OF FUEL IN TOTAL FUELS AND OF OXIDANT IN TOTAL OXIDANTS





           THEORETICAL ROCKET PERFORMANCE ASSUMING FROZEN COMPOSITION

 Pin =    50.0 PSIA
 CASE =                

             REACTANT                    WT FRACTION      ENERGY      TEMP
                                          (SEE NOTE)     KJ/KG-MOL      K  
 FUEL        H2O(L)                       1.0000000   -285841.390    298.000
 OXIDANT     H2O2(L)                      1.0000000   -187793.400    298.000

 O/F=    4.60000  %FUEL= 17.857143  R,EQ.RATIO= 0.585141  PHI,EQ.RATIO= 0.000000

                 CHAMBER   THROAT     EXIT     EXIT     EXIT     EXIT     EXIT     EXIT
 Pinf/P            1.0000   1.8291   1.8291   3.6025   4.9972   6.4390   7.9506   9.5354
 P, BAR            3.4474   1.8848   1.8848  0.95695  0.68986  0.53539  0.43360  0.36153
 T, K              836.93   731.37   731.37   625.56   579.08   545.05   518.02   495.63
 RHO, KG/CU M    1.0738 0 6.7181-1 6.7181-1 3.9879-1 3.1056-1 2.5607-1 2.1820-1 1.9016-1
 H, KJ/KG        -7368.39 -7549.80 -7549.80 -7725.93 -7801.51 -7856.15 -7899.14 -7934.47
 U, KJ/KG        -7689.44 -7830.35 -7830.35 -7965.89 -8023.64 -8065.23 -8097.85 -8124.60
 G, KJ/KG        -15985.9 -15080.3 -15080.3 -14167.0 -13764.0 -13468.2 -13232.9 -13037.8
 S, KJ/(KG)(K)    10.2965  10.2965  10.2965  10.2965  10.2965  10.2965  10.2965  10.2965

 M, (1/n)          21.675   21.675   21.675   21.675   21.675   21.675   21.675   21.675
 Cp, KJ/(KG)(K)    1.7453   1.6916   1.6916   1.6377   1.6142   1.5972   1.5839   1.5731
 GAMMAs            1.2817   1.2933   1.2933   1.3059   1.3117   1.3161   1.3196   1.3225
 SON VEL,M/SEC      641.5    602.4    602.4    559.8    539.8    524.6    512.1    501.4
 MACH NUMBER        0.000    1.000    1.000    1.511    1.724    1.883    2.012    2.122

 TRANSPORT PROPERTIES (GASES ONLY)
   CONDUCTIVITY IN UNITS OF MILLIWATTS/(CM)(K)

 VISC,MILLIPOISE  0.36664  0.32601  0.32601  0.28350  0.26428  0.25001  0.23857  0.22904

  WITH FROZEN REACTIONS

 Cp, KJ/(KG)(K)    1.7453   1.6916   1.6916   1.6377   1.6142   1.5972   1.5839   1.5731
 CONDUCTIVITY      0.7334   0.6206   0.6206   0.5126   0.4671   0.4348   0.4098   0.3895
 PRANDTL NUMBER    0.8726   0.8887   0.8887   0.9058   0.9132   0.9184   0.9222   0.9251

 PERFORMANCE PARAMETERS

 Ae/At                      1.0000   1.0000   1.2000   1.4000   1.6000   1.8000   2.0000
 CSTAR, M/SEC                851.9    851.9    851.9    851.9    851.9    851.9    851.9
 CF                         0.7071   0.7071   0.9926   1.0925   1.1594   1.2094   1.2490
 Ivac, M/SEC                1068.1   1068.1   1129.4   1169.4   1199.4   1223.2   1242.7
 Isp, M/SEC                  602.4    602.4    845.6    930.7    987.7   1030.3   1064.0

 MOLE FRACTIONS

 H2O             0.73828   *O2             0.26172

  * THERMODYNAMIC PROPERTIES FITTED TO 20000.K

    PRODUCTS WHICH WERE CONSIDERED BUT WHOSE MOLE FRACTIONS
    WERE LESS THAN 5.000000E-06 FOR ALL ASSIGNED CONDITIONS

 *H              HO2             *H2             H2O2            *O             
 *OH             O3              H2O(cr)         H2O(L)         

 NOTE. WEIGHT FRACTION OF FUEL IN TOTAL FUELS AND OF OXIDANT IN TOTAL OXIDANTS






 O/F =   4.800000

                       EFFECTIVE FUEL     EFFECTIVE OXIDANT        MIXTURE
 ENTHALPY                  h(2)/R              h(1)/R               h0/R
 (KG-MOL)(K)/KG       -0.19083035E+04     -0.66401406E+03     -0.87854672E+03

 KG-FORM.WT./KG             bi(2)               bi(1)               b0i
  *H                   0.11101687E+00      0.58798142E-01      0.67801371E-01
  *O                   0.55508435E-01      0.58798142E-01      0.58230952E-01

 POINT ITN      T            H           O 
   1    3     852.053     -22.464     -13.579
 Pinf/Pt = 1.820416
   2    3     745.773     -24.946     -13.720
 Pinf/Pt = 1.828145
   2    2     745.060     -24.965     -13.721
 Pinf/Pt = 1.828196
   2    1     745.055     -24.965     -13.721
   3    1     745.055     -24.965     -13.721
   4    3     645.686     -28.028     -13.881
   4    2     637.553     -28.321     -13.896
   4    2     637.712     -28.315     -13.895
   5    3     599.124     -29.812     -13.968
   5    2     590.408     -30.177     -13.986
   5    2     590.510     -30.173     -13.986
   6    3     563.142     -31.393     -14.043
   6    2     555.887     -31.737     -14.059
   6    1     555.937     -31.734     -14.059
   7    3     533.590     -32.851     -14.111
   7    2     528.448     -33.121     -14.123
   7    1     528.468     -33.120     -14.123
   8    3     504.619     -34.446     -14.183
   8    2     505.710     -34.382     -14.180





              THEORETICAL ROCKET PERFORMANCE ASSUMING EQUILIBRIUM

           COMPOSITION DURING EXPANSION FROM INFINITE AREA COMBUSTOR

 Pin =    20.0 PSIA
 CASE =                

             REACTANT                    WT FRACTION      ENERGY      TEMP
                                          (SEE NOTE)     KJ/KG-MOL      K  
 FUEL        H2O(L)                       1.0000000   -285841.390    298.000
 OXIDANT     H2O2(L)                      1.0000000   -187793.400    298.000

 O/F=    4.80000  %FUEL= 17.241379  R,EQ.RATIO= 0.582176  PHI,EQ.RATIO= 0.000000

                 CHAMBER   THROAT     EXIT     EXIT     EXIT     EXIT     EXIT     EXIT
 Pinf/P            1.0000   1.8282   1.8282   3.5989   4.9910   6.4299   7.9383   9.5196
 P, BAR            1.3789  0.75427  0.75427  0.38316  0.27629  0.21446  0.17371  0.14485
 T, K              852.05   745.06   745.06   637.71   590.51   555.94   528.47   505.71
 RHO, KG/CU M    4.2254-1 2.6431-1 2.6431-1 1.5687-1 1.2216-1 1.0072-1 8.5819-2 7.4785-2
 H, KJ/KG        -7304.69 -7489.01 -7489.01 -7668.08 -7744.96 -7800.57 -7844.33 -7880.30
 U, KJ/KG        -7631.03 -7774.37 -7774.37 -7912.33 -7971.14 -8013.50 -8046.74 -8073.99
 G, KJ/KG        -16392.1 -15435.2 -15435.2 -14469.5 -14042.9 -13729.8 -13480.6 -13273.8
 S, KJ/(KG)(K)    10.6653  10.6653  10.6653  10.6653  10.6653  10.6653  10.6653  10.6653

 M, (1/n)          21.708   21.708   21.708   21.708   21.708   21.708   21.708   21.708
 (dLV/dLP)t      -1.00000 -1.00000 -1.00000 -1.00000 -1.00000 -1.00000 -1.00000 -1.00000
 (dLV/dLT)p        1.0000   1.0000   1.0000   1.0000   1.0000   1.0000   1.0000   1.0000
 Cp, KJ/(KG)(K)    1.7498   1.6955   1.6955   1.6409   1.6170   1.5997   1.5862   1.5751
 GAMMAs            1.2802   1.2918   1.2918   1.3045   1.3104   1.3148   1.3183   1.3213
 SON VEL,M/SEC      646.4    607.2    607.2    564.5    544.4    529.1    516.6    505.9
 MACH NUMBER        0.000    1.000    1.000    1.510    1.724    1.882    2.011    2.121

 TRANSPORT PROPERTIES (GASES ONLY)
   CONDUCTIVITY IN UNITS OF MILLIWATTS/(CM)(K)

 VISC,MILLIPOISE  0.37273  0.33180  0.33180  0.28892  0.26948  0.25504  0.24345  0.23378

  WITH EQUILIBRIUM REACTIONS

 Cp, KJ/(KG)(K)    1.7498   1.6955   1.6955   1.6409   1.6170   1.5997   1.5862   1.5751
 CONDUCTIVITY      0.7496   0.6349   0.6349   0.5248   0.4784   0.4453   0.4196   0.3988
 PRANDTL NUMBER    0.8700   0.8861   0.8861   0.9034   0.9109   0.9163   0.9203   0.9233

  WITH FROZEN REACTIONS

 Cp, KJ/(KG)(K)    1.7498   1.6955   1.6955   1.6409   1.6170   1.5997   1.5862   1.5751
 CONDUCTIVITY      0.7496   0.6349   0.6349   0.5248   0.4784   0.4453   0.4196   0.3988
 PRANDTL NUMBER    0.8700   0.8861   0.8861   0.9034   0.9109   0.9163   0.9203   0.9233

 PERFORMANCE PARAMETERS

 Ae/At                      1.0000   1.0000   1.2000   1.4000   1.6000   1.8000   2.0000
 CSTAR, M/SEC                859.3    859.3    859.3    859.3    859.3    859.3    859.3
 CF                         0.7066   0.7066   0.9922   1.0921   1.1590   1.2090   1.2487
 Ivac, M/SEC                1077.2   1077.2   1139.0   1179.4   1209.7   1233.7   1253.5
 Isp, M/SEC                  607.2    607.2    852.5    938.4    995.9   1038.9   1072.9


 MOLE FRACTIONS

 H2O              0.73592  0.73592  0.73592  0.73592  0.73592  0.73592  0.73592  0.73592
 *O2              0.26408  0.26408  0.26408  0.26408  0.26408  0.26408  0.26408  0.26408

  * THERMODYNAMIC PROPERTIES FITTED TO 20000.K

    PRODUCTS WHICH WERE CONSIDERED BUT WHOSE MOLE FRACTIONS
    WERE LESS THAN 5.000000E-06 FOR ALL ASSIGNED CONDITIONS

 *H              HO2             *H2             H2O2            *O             
 *OH             O3              H2O(cr)         H2O(L)         

 NOTE. WEIGHT FRACTION OF FUEL IN TOTAL FUELS AND OF OXIDANT IN TOTAL OXIDANTS





           THEORETICAL ROCKET PERFORMANCE ASSUMING FROZEN COMPOSITION

 Pin =    20.0 PSIA
 CASE =                

             REACTANT                    WT FRACTION      ENERGY      TEMP
                                          (SEE NOTE)     KJ/KG-MOL      K  
 FUEL        H2O(L)                       1.0000000   -285841.390    298.000
 OXIDANT     H2O2(L)                      1.0000000   -187793.400    298.000

 O/F=    4.80000  %FUEL= 17.241379  R,EQ.RATIO= 0.582176  PHI,EQ.RATIO= 0.000000

                 CHAMBER   THROAT     EXIT     EXIT     EXIT     EXIT     EXIT     EXIT
 Pinf/P            1.0000   1.8282   1.8282   3.5989   4.9910   6.4299   7.9383   9.5196
 P, BAR            1.3789  0.75427  0.75427  0.38316  0.27629  0.21446  0.17371  0.14485
 T, K              852.05   745.06   745.06   637.71   590.51   555.94   528.47   505.71
 RHO, KG/CU M    4.2254-1 2.6431-1 2.6431-1 1.5687-1 1.2216-1 1.0072-1 8.5819-2 7.4785-2
 H, KJ/KG        -7304.69 -7489.01 -7489.01 -7668.08 -7744.96 -7800.57 -7844.33 -7880.30
 U, KJ/KG        -7631.03 -7774.37 -7774.37 -7912.33 -7971.14 -8013.50 -8046.74 -8073.99
 G, KJ/KG        -16392.1 -15435.2 -15435.2 -14469.5 -14042.9 -13729.8 -13480.6 -13273.8
 S, KJ/(KG)(K)    10.6653  10.6653  10.6653  10.6653  10.6653  10.6653  10.6653  10.6653

 M, (1/n)          21.708   21.708   21.708   21.708   21.708   21.708   21.708   21.708
 Cp, KJ/(KG)(K)    1.7498   1.6955   1.6955   1.6409   1.6170   1.5997   1.5862   1.5751
 GAMMAs            1.2802   1.2918   1.2918   1.3045   1.3104   1.3148   1.3183   1.3213
 SON VEL,M/SEC      646.4    607.2    607.2    564.5    544.4    529.1    516.6    505.9
 MACH NUMBER        0.000    1.000    1.000    1.510    1.724    1.882    2.011    2.121

 TRANSPORT PROPERTIES (GASES ONLY)
   CONDUCTIVITY IN UNITS OF MILLIWATTS/(CM)(K)

 VISC,MILLIPOISE  0.37273  0.33180  0.33180  0.28892  0.26948  0.25504  0.24345  0.23378

  WITH FROZEN REACTIONS

 Cp, KJ/(KG)(K)    1.7498   1.6955   1.6955   1.6409   1.6170   1.5997   1.5862   1.5751
 CONDUCTIVITY      0.7496   0.6349   0.6349   0.5248   0.4784   0.4453   0.4196   0.3988
 PRANDTL NUMBER    0.8700   0.8861   0.8861   0.9034   0.9109   0.9163   0.9203   0.9233

 PERFORMANCE PARAMETERS

 Ae/At                      1.0000   1.0000   1.2000   1.4000   1.6000   1.8000   2.0000
 CSTAR, M/SEC                859.3    859.3    859.3    859.3    859.3    859.3    859.3
 CF                         0.7066   0.7066   0.9922   1.0921   1.1590   1.2090   1.2487
 Ivac, M/SEC                1077.2   1077.2   1139.0   1179.4   1209.7   1233.7   1253.5
 Isp, M/SEC                  607.2    607.2    852.5    938.4    995.9   1038.9   1072.9

 MOLE FRACTIONS

 H2O             0.73592   *O2             0.26408

  * THERMODYNAMIC PROPERTIES FITTED TO 20000.K

    PRODUCTS WHICH WERE CONSIDERED BUT WHOSE MOLE FRACTIONS
    WERE LESS THAN 5.000000E-06 FOR ALL ASSIGNED CONDITIONS

 *H              HO2             *H2             H2O2            *O             
 *OH             O3              H2O(cr)         H2O(L)         

 NOTE. WEIGHT FRACTION OF FUEL IN TOTAL FUELS AND OF OXIDANT IN TOTAL OXIDANTS






 POINT ITN      T            H           O 
   1    1     852.053     -22.363     -13.376
 Pinf/Pt = 1.820416
   2    3     745.773     -24.844     -13.518
 Pinf/Pt = 1.828145
   2    2     745.060     -24.863     -13.519
 Pinf/Pt = 1.828196
   2    1     745.055     -24.863     -13.519
   3    1     745.055     -24.863     -13.519
   4    3     645.686     -27.926     -13.678
   4    2     637.553     -28.219     -13.693
   4    2     637.712     -28.214     -13.693
   5    3     599.124     -29.711     -13.766
   5    2     590.408     -30.076     -13.783
   5    2     590.510     -30.072     -13.783
   6    3     563.142     -31.292     -13.841
   6    2     555.887     -31.635     -13.857
   6    1     555.937     -31.633     -13.857
   7    3     533.590     -32.749     -13.908
   7    2     528.448     -33.020     -13.920
   7    1     528.468     -33.019     -13.920
   8    3     504.619     -34.344     -13.980
   8    2     505.710     -34.281     -13.977





              THEORETICAL ROCKET PERFORMANCE ASSUMING EQUILIBRIUM

           COMPOSITION DURING EXPANSION FROM INFINITE AREA COMBUSTOR

 Pin =    30.0 PSIA
 CASE =                

             REACTANT                    WT FRACTION      ENERGY      TEMP
                                          (SEE NOTE)     KJ/KG-MOL      K  
 FUEL        H2O(L)                       1.0000000   -285841.390    298.000
 OXIDANT     H2O2(L)                      1.0000000   -187793.400    298.000

 O/F=    4.80000  %FUEL= 17.241379  R,EQ.RATIO= 0.582176  PHI,EQ.RATIO= 0.000000

                 CHAMBER   THROAT     EXIT     EXIT     EXIT     EXIT     EXIT     EXIT
 Pinf/P            1.0000   1.8282   1.8282   3.5989   4.9910   6.4299   7.9383   9.5196
 P, BAR            2.0684   1.1314   1.1314  0.57474  0.41443  0.32169  0.26056  0.21728
 T, K              852.05   745.06   745.06   637.71   590.51   555.94   528.47   505.71
 RHO, KG/CU M    6.3381-1 3.9647-1 3.9647-1 2.3531-1 1.8324-1 1.5107-1 1.2873-1 1.1218-1
 H, KJ/KG        -7304.69 -7489.01 -7489.01 -7668.08 -7744.96 -7800.57 -7844.33 -7880.30
 U, KJ/KG        -7631.03 -7774.37 -7774.37 -7912.33 -7971.14 -8013.50 -8046.74 -8073.99
 G, KJ/KG        -16259.8 -15319.5 -15319.5 -14370.4 -13951.2 -13643.5 -13398.5 -13195.3
 S, KJ/(KG)(K)    10.5100  10.5100  10.5100  10.5100  10.5100  10.5100  10.5100  10.5100

 M, (1/n)          21.708   21.708   21.708   21.708   21.708   21.708   21.708   21.708
 (dLV/dLP)t      -1.00000 -1.00000 -1.00000 -1.00000 -1.00000 -1.00000 -1.00000 -1.00000
 (dLV/dLT)p        1.0000   1.0000   1.0000   1.0000   1.0000   1.0000   1.0000   1.0000
 Cp, KJ/(KG)(K)    1.7498   1.6955   1.6955   1.6409   1.6170   1.5997   1.5862   1.5751
[...]

  * THERMODYNAMIC PROPERTIES FITTED TO 20000.K

    PRODUCTS WHICH WERE CONSIDERED BUT WHOSE MOLE FRACTIONS
    WERE LESS THAN 5.000000E-06 FOR ALL ASSIGNED CONDITIONS

 *H              HO2             *H2             H2O2            *O             
 *OH             O3              H2O(cr)         H2O(L)         

 NOTE. WEIGHT FRACTION OF FUEL IN TOTAL FUELS AND OF OXIDANT IN TOTAL OXIDANTS





           THEORETICAL ROCKET PERFORMANCE ASSUMING FROZEN COMPOSITION

 Pin =    30.0 PSIA
 CASE =                

             REACTANT                    WT FRACTION      ENERGY      TEMP
                                          (SEE NOTE)     KJ/KG-MOL      K  
 FUEL        H2O(L)                       1.0000000   -285841.390    298.000
 OXIDANT     H2O2(L)                      1.0000000   -187793.400    298.000

 O/F=    5.00000  %FUEL= 16.666667  R,EQ.RATIO= 0.579411  PHI,EQ.RATIO= 0.000000

                 CHAMBER   THROAT     EXIT     EXIT     EXIT     EXIT     EXIT     EXIT
 Pinf/P            1.0000   1.8274   1.8274   3.5955   4.9853   6.4215   7.9269   9.5048
 P, BAR            2.0684   1.1319   1.1319  0.57527  0.41491  0.32211  0.26094  0.21762
 T, K              866.16   757.83   757.83   649.06   601.20   566.12   538.24   515.14
 RHO, KG/CU M    6.2437-1 3.9051-1 3.9051-1 2.3173-1 1.8044-1 1.4876-1 1.2675-1 1.1045-1
 H, KJ/KG        -7245.23 -7432.25 -7432.25 -7614.06 -7692.16 -7748.66 -7793.13 -7829.70
 U, KJ/KG        -7576.51 -7722.10 -7722.10 -7862.31 -7922.10 -7965.19 -7999.00 -8026.72
 G, KJ/KG        -16362.3 -15409.1 -15409.1 -14446.0 -14020.3 -13707.6 -13458.6 -13252.0
 S, KJ/(KG)(K)    10.5258  10.5258  10.5258  10.5258  10.5258  10.5258  10.5258  10.5258

 M, (1/n)          21.739   21.739   21.739   21.739   21.739   21.739   21.739   21.739
 Cp, KJ/(KG)(K)    1.7538   1.6991   1.6991   1.6439   1.6196   1.6021   1.5883   1.5770
 GAMMAs            1.2789   1.2905   1.2905   1.3032   1.3091   1.3136   1.3172   1.3202
 SON VEL,M/SEC      650.9    611.6    611.6    568.8    548.7    533.3    520.7    510.0
 MACH NUMBER        0.000    1.000    1.000    1.510    1.723    1.881    2.010    2.120

 TRANSPORT PROPERTIES (GASES ONLY)
   CONDUCTIVITY IN UNITS OF MILLIWATTS/(CM)(K)

 VISC,MILLIPOISE  0.37836  0.33718  0.33718  0.29395  0.27433  0.25973  0.24800  0.23821

  WITH FROZEN REACTIONS

 Cp, KJ/(KG)(K)    1.7538   1.6991   1.6991   1.6439   1.6196   1.6021   1.5883   1.5770
 CONDUCTIVITY      0.7648   0.6483   0.6483   0.5362   0.4889   0.4551   0.4289   0.4076
 PRANDTL NUMBER    0.8676   0.8837   0.8837   0.9011   0.9088   0.9143   0.9184   0.9216

 PERFORMANCE PARAMETERS

 Ae/At                      1.0000   1.0000   1.2000   1.4000   1.6000   1.8000   2.0000
 CSTAR, M/SEC                866.0    866.0    866.0    866.0    866.0    866.0    866.0
 CF                         0.7062   0.7062   0.9917   1.0917   1.1586   1.2087   1.2484
 Ivac, M/SEC                1085.5   1085.5   1147.9   1188.7   1219.2   1243.5   1263.4
 Isp, M/SEC                  611.6    611.6    858.9    945.4   1003.4   1046.8   1081.2

 MOLE FRACTIONS

 H2O             0.73371   *O2             0.26629

  * THERMODYNAMIC PROPERTIES FITTED TO 20000.K

    PRODUCTS WHICH WERE CONSIDERED BUT WHOSE MOLE FRACTIONS
    WERE LESS THAN 5.000000E-06 FOR ALL ASSIGNED CONDITIONS

 *H              HO2             *H2             H2O2            *O             
 *OH             O3              H2O(cr)         H2O(L)         

 NOTE. WEIGHT FRACTION OF FUEL IN TOTAL FUELS AND OF OXIDANT IN TOTAL OXIDANTS






 POINT ITN      T            H           O 
   1    1     866.159     -22.030     -13.249
 Pinf/Pt = 1.819601
   2    3     758.563     -24.459     -13.389
 Pinf/Pt = 1.827338
   2    2     757.839     -24.478     -13.390
 Pinf/Pt = 1.827390
   2    1     757.834     -24.478     -13.390
   3    1     757.834     -24.478     -13.390
   4    3     657.080     -27.479     -13.548
   4    2     648.906     -27.763     -13.562
   4    2     649.064     -27.757     -13.562
   5    3     609.840     -29.226     -13.634
   5    2     601.098     -29.580     -13.651
   5    2     601.199     -29.576     -13.651
   6    3     573.321     -30.775     -13.708
   6    2     566.074     -31.106     -13.724
   6    1     566.123     -31.103     -13.724
   7    3     543.317     -32.202     -13.775
   7    2     538.226     -32.460     -13.786
   7    1     538.245     -32.460     -13.786
   8    3     514.005     -33.758     -13.845
   8    2     515.140     -33.695     -13.843





              THEORETICAL ROCKET PERFORMANCE ASSUMING EQUILIBRIUM

           COMPOSITION DURING EXPANSION FROM INFINITE AREA COMBUSTOR

 Pin =    40.0 PSIA
 CASE =                

             REACTANT                    WT FRACTION      ENERGY      TEMP
                                          (SEE NOTE)     KJ/KG-MOL      K  
 FUEL        H2O(L)                       1.0000000   -285841.390    298.000
 OXIDANT     H2O2(L)                      1.0000000   -187793.400    298.000

 O/F=    5.00000  %FUEL= 16.666667  R,EQ.RATIO= 0.579411  PHI,EQ.RATIO= 0.000000

                 CHAMBER   THROAT     EXIT     EXIT     EXIT     EXIT     EXIT     EXIT
 Pinf/P            1.0000   1.8274   1.8274   3.5955   4.9853   6.4215   7.9269   9.5048
 P, BAR            2.7579   1.5092   1.5092  0.76703  0.55321  0.42948  0.34792  0.29016
 T, K              866.16   757.83   757.83   649.06   601.20   566.12   538.24   515.14
 RHO, KG/CU M    8.3250-1 5.2068-1 5.2068-1 3.0898-1 2.4059-1 1.9835-1 1.6900-1 1.4727-1
 H, KJ/KG        -7245.23 -7432.25 -7432.25 -7614.06 -7692.16 -7748.66 -7793.13 -7829.70
 U, KJ/KG        -7576.51 -7722.10 -7722.10 -7862.31 -7922.10 -7965.19 -7999.00 -8026.72
 G, KJ/KG        -16267.0 -15325.7 -15325.7 -14374.6 -13954.1 -13645.3 -13399.4 -13195.3
 S, KJ/(KG)(K)    10.4158  10.4158  10.4158  10.4158  10.4158  10.4158  10.4158  10.4158

 M, (1/n)          21.739   21.739   21.739   21.739   21.739   21.739   21.739   21.739
 (dLV/dLP)t      -1.00000 -1.00000 -1.00000 -1.00000 -1.00000 -1.00000 -1.00000 -1.00000
 (dLV/dLT)p        1.0000   1.0000   1.0000   1.0000   1.0000   1.0000   1.0000   1.0000
 Cp, KJ/(KG)(K)    1.7538   1.6991   1.6991   1.6439   1.6196   1.6021   1.5883   1.5770
 GAMMAs            1.2789   1.2905   1.2905   1.3032   1.3091   1.3136   1.3172   1.3202
 SON VEL,M/SEC      650.9    611.6    611.6    568.8    548.7    533.3    520.7    510.0
 MACH NUMBER        0.000    1.000    1.000    1.510    1.723    1.881    2.010    2.120

 TRANSPORT PROPERTIES (GASES ONLY)
   CONDUCTIVITY IN UNITS OF MILLIWATTS/(CM)(K)

 VISC,MILLIPOISE  0.37836  0.33718  0.33718  0.29395  0.27433  0.25973  0.24800  0.23821

  WITH EQUILIBRIUM REACTIONS

 Cp, KJ/(KG)(K)    1.7538   1.6991   1.6991   1.6439   1.6196   1.6021   1.5883   1.5770
 CONDUCTIVITY      0.7648   0.6483   0.6483   0.5362   0.4889   0.4551   0.4289   0.4076
 PRANDTL NUMBER    0.8676   0.8837   0.8837   0.9011   0.9088   0.9143   0.9184   0.9216

  WITH FROZEN REACTIONS

 Cp, KJ/(KG)(K)    1.7538   1.6991   1.6991   1.6439   1.6196   1.6021   1.5883   1.5770
 CONDUCTIVITY      0.7648   0.6483   0.6483   0.5362   0.4889   0.4551   0.4289   0.4076
 PRANDTL NUMBER    0.8676   0.8837   0.8837   0.9011   0.9088   0.9143   0.9184   0.9216

 PERFORMANCE PARAMETERS

 Ae/At                      1.0000   1.0000   1.2000   1.4000   1.6000   1.8000   2.0000
 CSTAR, M/SEC                866.0    866.0    866.0    866.0    866.0    866.0    866.0
 CF                         0.7062   0.7062   0.9917   1.0917   1.1586   1.2087   1.2484
 Ivac, M/SEC                1085.5   1085.5   1147.9   1188.7   1219.2   1243.5   1263.4
 Isp, M/SEC                  611.6    611.6    858.9    945.4   1003.4   1046.8   1081.2


 MOLE FRACTIONS

 H2O              0.73371  0.73371  0.73371  0.73371  0.73371  0.73371  0.73371  0.73371
 *O2              0.26629  0.26629  0.26629  0.26629  0.26629  0.26629  0.26629  0.26629

  * THERMODYNAMIC PROPERTIES FITTED TO 20000.K

    PRODUCTS WHICH WERE CONSIDERED BUT WHOSE MOLE FRACTIONS
    WERE LESS THAN 5.000000E-06 FOR ALL ASSIGNED CONDITIONS

 *H              HO2             *H2             H2O2            *O             
 *OH             O3              H2O(cr)         H2O(L)         

 NOTE. WEIGHT FRACTION OF FUEL IN TOTAL FUELS AND OF OXIDANT IN TOTAL OXIDANTS





           THEORETICAL ROCKET PERFORMANCE ASSUMING FROZEN COMPOSITION

 Pin =    40.0 PSIA
 CASE =                

             REACTANT                    WT FRACTION      ENERGY      TEMP
                                          (SEE NOTE)     KJ/KG-MOL      K  
 FUEL        H2O(L)                       1.0000000   -285841.390    298.000
 OXIDANT     H2O2(L)                      1.0000000   -187793.400    298.000

 O/F=    5.00000  %FUEL= 16.666667  R,EQ.RATIO= 0.579411  PHI,EQ.RATIO= 0.000000

                 CHAMBER   THROAT     EXIT     EXIT     EXIT     EXIT     EXIT     EXIT
 Pinf/P            1.0000   1.8274   1.8274   3.5955   4.9853   6.4215   7.9269   9.5048
 P, BAR            2.7579   1.5092   1.5092  0.76703  0.55321  0.42948  0.34792  0.29016
 T, K              866.16   757.83   757.83   649.06   601.20   566.12   538.24   515.14
 RHO, KG/CU M    8.3250-1 5.2068-1 5.2068-1 3.0898-1 2.4059-1 1.9835-1 1.6900-1 1.4727-1
 H, KJ/KG        -7245.23 -7432.25 -7432.25 -7614.06 -7692.16 -7748.66 -7793.13 -7829.70
 U, KJ/KG        -7576.51 -7722.10 -7722.10 -7862.31 -7922.10 -7965.19 -7999.00 -8026.72
 G, KJ/KG        -16267.0 -15325.7 -15325.7 -14374.6 -13954.1 -13645.3 -13399.4 -13195.3
 S, KJ/(KG)(K)    10.4158  10.4158  10.4158  10.4158  10.4158  10.4158  10.4158  10.4158

 M, (1/n)          21.739   21.739   21.739   21.739   21.739   21.739   21.739   21.739
 Cp, KJ/(KG)(K)    1.7538   1.6991   1.6991   1.6439   1.6196   1.6021   1.5883   1.5770
 GAMMAs            1.2789   1.2905   1.2905   1.3032   1.3091   1.3136   1.3172   1.3202
 SON VEL,M/SEC      650.9    611.6    611.6    568.8    548.7    533.3    520.7    510.0
 MACH NUMBER        0.000    1.000    1.000    1.510    1.723    1.881    2.010    2.120

 TRANSPORT PROPERTIES (GASES ONLY)
   CONDUCTIVITY IN UNITS OF MILLIWATTS/(CM)(K)

 VISC,MILLIPOISE  0.37836  0.33718  0.33718  0.29395  0.27433  0.25973  0.24800  0.23821

  WITH FROZEN REACTIONS

 Cp, KJ/(KG)(K)    1.7538   1.6991   1.6991   1.6439   1.6196   1.6021   1.5883   1.5770
 CONDUCTIVITY      0.7648   0.6483   0.6483   0.5362   0.4889   0.4551   0.4289   0.4076
 PRANDTL NUMBER    0.8676   0.8837   0.8837   0.9011   0.9088   0.9143   0.9184   0.9216

 PERFORMANCE PARAMETERS

 Ae/At                      1.0000   1.0000   1.2000   1.4000   1.6000   1.8000   2.0000
 CSTAR, M/SEC                866.0    866.0    866.0    866.0    866.0    866.0    866.0
 CF                         0.7062   0.7062   0.9917   1.0917   1.1586   1.2087   1.2484
 Ivac, M/SEC                1085.5   1085.5   1147.9   1188.7   1219.2   1243.5   1263.4
 Isp, M/SEC                  611.6    611.6    858.9    945.4   1003.4   1046.8   1081.2

 MOLE FRACTIONS

 H2O             0.73371   *O2             0.26629

  * THERMODYNAMIC PROPERTIES FITTED TO 20000.K

    PRODUCTS WHICH WERE CONSIDERED BUT WHOSE MOLE FRACTIONS
    WERE LESS THAN 5.000000E-06 FOR ALL ASSIGNED CONDITIONS

 *H              HO2             *H2             H2O2            *O             
 *OH             O3              H2O(cr)         H2O(L)         

 NOTE. WEIGHT FRACTION OF FUEL IN TOTAL FUELS AND OF OXIDANT IN TOTAL OXIDANTS






 POINT ITN      T            H           O 
   1    1     866.159     -21.974     -13.137
 Pinf/Pt = 1.819601
   2    3     758.563     -24.404     -13.277
 Pinf/Pt = 1.827338
   2    2     757.839     -24.422     -13.278
 Pinf/Pt = 1.827390
   2    1     757.834     -24.422     -13.278
   3    1     757.834     -24.422     -13.278
   4    3     657.080     -27.423     -13.436
   4    2     648.906     -27.707     -13.450
   4    2     649.064     -27.701     -13.450
   5    3     609.840     -29.171     -13.522
   5    2     601.098     -29.524     -13.540
   5    2     601.199     -29.520     -13.539
   6    3     573.321     -30.719     -13.597
   6    2     566.074     -31.050     -13.612
   6    1     566.123     -31.048     -13.612
   7    3     543.317     -32.147     -13.663
   7    2     538.226     -32.405     -13.675
   7    1     538.245     -32.404     -13.675
   8    3     514.005     -33.702     -13.734
   8    2     515.140     -33.639     -13.731





              THEORETICAL ROCKET PERFORMANCE ASSUMING EQUILIBRIUM

           COMPOSITION DURING EXPANSION FROM INFINITE AREA COMBUSTOR

 Pin =    50.0 PSIA
 CASE =                

             REACTANT                    WT FRACTION      ENERGY      TEMP
                                          (SEE NOTE)     KJ/KG-MOL      K  
 FUEL        H2O(L)                       1.0000000   -285841.390    298.000
 OXIDANT     H2O2(L)                      1.0000000   -187793.400    298.000

 O/F=    5.00000  %FUEL= 16.666667  R,EQ.RATIO= 0.579411  PHI,EQ.RATIO= 0.000000

                 CHAMBER   THROAT     EXIT     EXIT     EXIT     EXIT     EXIT     EXIT
 Pinf/P            1.0000   1.8274   1.8274   3.5955   4.9853   6.4215   7.9269   9.5048
 P, BAR            3.4474   1.8865   1.8865  0.95879  0.69151  0.53685  0.43489  0.36270
 T, K              866.16   757.83   757.83   649.06   601.20   566.12   538.24   515.14
 RHO, KG/CU M    1.0406 0 6.5086-1 6.5086-1 3.8622-1 3.0073-1 2.4794-1 2.1126-1 1.8409-1
 H, KJ/KG        -7245.23 -7432.25 -7432.25 -7614.06 -7692.16 -7748.66 -7793.13 -7829.70
 U, KJ/KG        -7576.51 -7722.10 -7722.10 -7862.31 -7922.10 -7965.19 -7999.00 -8026.72
 G, KJ/KG        -16193.0 -15261.0 -15261.0 -14319.2 -13902.8 -13597.0 -13353.4 -13151.3
 S, KJ/(KG)(K)    10.3305  10.3305  10.3305  10.3305  10.3305  10.3305  10.3305  10.3305

 M, (1/n)          21.739   21.739   21.739   21.739   21.739   21.739   21.739   21.739
 (dLV/dLP)t      -1.00000 -1.00000 -1.00000 -1.00000 -1.00000 -1.00000 -1.00000 -1.00000
 (dLV/dLT)p        1.0000   1.0000   1.0000   1.0000   1.0000   1.0000   1.0000   1.0000
 Cp, KJ/(KG)(K)    1.7538   1.6991   1.6991   1.6439   1.6196   1.6021   1.5883   1.5770
 GAMMAs            1.2789   1.2905   1.2905   1.3032   1.3091   1.3136   1.3172   1.3202
 SON VEL,M/SEC      650.9    611.6    611.6    568.8    548.7    533.3    520.7    510.0
 MACH NUMBER        0.000    1.000    1.000    1.510    1.723    1.881    2.010    2.120

 TRANSPORT PROPERTIES (GASES ONLY)
   CONDUCTIVITY IN UNITS OF MILLIWATTS/(CM)(K)

 VISC,MILLIPOISE  0.37836  0.33718  0.33718  0.29395  0.27433  0.25973  0.24800  0.23821

  WITH EQUILIBRIUM REACTIONS

 Cp, KJ/(KG)(K)    1.7538   1.6991   1.6991   1.6439   1.6196   1.6021   1.5883   1.5770
 CONDUCTIVITY      0.7648   0.6483   0.6483   0.5362   0.4889   0.4551   0.4289   0.4076
 PRANDTL NUMBER    0.8676   0.8837   0.8837   0.9011   0.9088   0.9143   0.9184   0.9216

  WITH FROZEN REACTIONS

 Cp, KJ/(KG)(K)    1.7538   1.6991   1.6991   1.6439   1.6196   1.6021   1.5883   1.5770
 CONDUCTIVITY      0.7648   0.6483   0.6483   0.5362   0.4889   0.4551   0.4289   0.4076
 PRANDTL NUMBER    0.8676   0.8837   0.8837   0.9011   0.9088   0.9143   0.9184   0.9216

 PERFORMANCE PARAMETERS

 Ae/At                      1.0000   1.0000   1.2000   1.4000   1.6000   1.8000   2.0000
 CSTAR, M/SEC                866.0    866.0    866.0    866.0    866.0    866.0    866.0
 CF                         0.7062   0.7062   0.9917   1.0917   1.1586   1.2087   1.2484
 Ivac, M/SEC                1085.5   1085.5   1147.9   1188.7   1219.2   1243.5   1263.4
 Isp, M/SEC                  611.6    611.6    858.9    945.4   1003.4   1046.8   1081.2


 MOLE FRACTIONS

 H2O              0.73371  0.73371  0.73371  0.73371  0.73371  0.73371  0.73371  0.73371
 *O2              0.26629  0.26629  0.26629  0.26629  0.26629  0.26629  0.26629  0.26629

  * THERMODYNAMIC PROPERTIES FITTED TO 20000.K

    PRODUCTS WHICH WERE CONSIDERED BUT WHOSE MOLE FRACTIONS
    WERE LESS THAN 5.000000E-06 FOR ALL ASSIGNED CONDITIONS

 *H              HO2             *H2             H2O2            *O             
 *OH             O3              H2O(cr)         H2O(L)         

 NOTE. WEIGHT FRACTION OF FUEL IN TOTAL FUELS AND OF OXIDANT IN TOTAL OXIDANTS





           THEORETICAL ROCKET PERFORMANCE ASSUMING FROZEN COMPOSITION

 Pin =    50.0 PSIA
 CASE =                

             REACTANT                    WT FRACTION      ENERGY      TEMP
                                          (SEE NOTE)     KJ/KG-MOL      K  
 FUEL        H2O(L)                       1.0000000   -285841.390    298.000
 OXIDANT     H2O2(L)                      1.0000000   -187793.400    298.000

 O/F=    5.00000  %FUEL= 16.666667  R,EQ.RATIO= 0.579411  PHI,EQ.RATIO= 0.000000

                 CHAMBER   THROAT     EXIT     EXIT     EXIT     EXIT     EXIT     EXIT
 Pinf/P            1.0000   1.8274   1.8274   3.5955   4.9853   6.4215   7.9269   9.5048
 P, BAR            3.4474   1.8865   1.8865  0.95879  0.69151  0.53685  0.43489  0.36270
 T, K              866.16   757.83   757.83   649.06   601.20   566.12   538.24   515.14
 RHO, KG/CU M    1.0406 0 6.5086-1 6.5086-1 3.8622-1 3.0073-1 2.4794-1 2.1126-1 1.8409-1
 H, KJ/KG        -7245.23 -7432.25 -7432.25 -7614.06 -7692.16 -7748.66 -7793.13 -7829.70
 U, KJ/KG        -7576.51 -7722.10 -7722.10 -7862.31 -7922.10 -7965.19 -7999.00 -8026.72
 G, KJ/KG        -16193.0 -15261.0 -15261.0 -14319.2 -13902.8 -13597.0 -13353.4 -13151.3
 S, KJ/(KG)(K)    10.3305  10.3305  10.3305  10.3305  10.3305  10.3305  10.3305  10.3305

 M, (1/n)          21.739   21.739   21.739   21.739   21.739   21.739   21.739   21.739
 Cp, KJ/(KG)(K)    1.7538   1.6991   1.6991   1.6439   1.6196   1.6021   1.5883   1.5770
 GAMMAs            1.2789   1.2905   1.2905   1.3032   1.3091   1.3136   1.3172   1.3202
 SON VEL,M/SEC      650.9    611.6    611.6    568.8    548.7    533.3    520.7    510.0
 MACH NUMBER        0.000    1.000    1.000    1.510    1.723    1.881    2.010    2.120

 TRANSPORT PROPERTIES (GASES ONLY)
   CONDUCTIVITY IN UNITS OF MILLIWATTS/(CM)(K)

 VISC,MILLIPOISE  0.37836  0.33718  0.33718  0.29395  0.27433  0.25973  0.24800  0.23821

  WITH FROZEN REACTIONS

 Cp, KJ/(KG)(K)    1.7538   1.6991   1.6991   1.6439   1.6196   1.6021   1.5883   1.5770
 CONDUCTIVITY      0.7648   0.6483   0.6483   0.5362   0.4889   0.4551   0.4289   0.4076
 PRANDTL NUMBER    0.8676   0.8837   0.8837   0.9011   0.9088   0.9143   0.9184   0.9216

 PERFORMANCE PARAMETERS

 Ae/At                      1.0000   1.0000   1.2000   1.4000   1.6000   1.8000   2.0000
 CSTAR, M/SEC                866.0    866.0    866.0    866.0    866.0    866.0    866.0
 CF                         0.7062   0.7062   0.9917   1.0917   1.1586   1.2087   1.2484
 Ivac, M/SEC                1085.5   1085.5   1147.9   1188.7   1219.2   1243.5   1263.4
 Isp, M/SEC                  611.6    611.6    858.9    945.4   1003.4   1046.8   1081.2

 MOLE FRACTIONS

 H2O             0.73371   *O2             0.26629

  * THERMODYNAMIC PROPERTIES FITTED TO 20000.K

    PRODUCTS WHICH WERE CONSIDERED BUT WHOSE MOLE FRACTIONS
    WERE LESS THAN 5.000000E-06 FOR ALL ASSIGNED CONDITIONS

 *H              HO2             *H2             H2O2            *O             
 *OH             O3              H2O(cr)         H2O(L)         

 NOTE. WEIGHT FRACTION OF FUEL IN TOTAL FUELS AND OF OXIDANT IN TOTAL OXIDANTS



